MODEL 1
REMARK VINA RESULT:    -8.198      0.000      0.000
REMARK INTER + INTRA:         -10.806
REMARK INTER:                 -10.115
REMARK INTRA:                  -0.691
REMARK UNBOUND:                -0.691
REMARK  Name = Output/Trash/HeroinSDF_ligand_intermediary.pdb
REMARK  7 active torsions:
REMARK  status: ('A' for Active; 'I' for Inactive)
REMARK    1  A    between atoms: N1_11  and  C17_21
REMARK    2  A    between atoms: C10_12  and  O3_17
REMARK    3  A    between atoms: C11_13  and  O2_16
REMARK    4  A    between atoms: O2_16  and  C18_22
REMARK    5  A    between atoms: O3_17  and  C20_25
REMARK    6  A    between atoms: C18_22  and  C19_23
REMARK    7  A    between atoms: C20_25  and  C21_26
REMARK                            x       y       z     vdW  Elec       q    Type
REMARK                         _______ _______ _______ _____ _____    ______ ____
ROOT
ATOM      1  C1  UNL     1     121.097 118.249  92.753  0.00  0.00    +0.732 C 
ATOM      2  C2  UNL     1     119.681 117.840  92.541  0.00  0.00    -0.561 A 
ATOM      3  C3  UNL     1     119.554 117.090  91.412  0.00  0.00    +0.364 A 
ATOM      4  C4  UNL     1     121.753 117.810  91.394  0.00  0.00    -0.031 C 
ATOM      5  C5  UNL     1     121.133 119.766  93.035  0.00  0.00    -0.605 C 
ATOM      6  O1  UNL     1     120.760 117.003  90.747  0.00  0.00    -0.538 OA
ATOM      7  C6  UNL     1     120.260 120.025  94.293  0.00  0.00    +0.962 C 
ATOM      8  C7  UNL     1     118.574 118.405  93.171  0.00  0.00    +0.697 A 
ATOM      9  C8  UNL     1     120.698 120.535  91.809  0.00  0.00    +0.232 C 
ATOM     10  C9  UNL     1     118.760 119.593  94.089  0.00  0.00    -0.653 C 
ATOM     11  N1  UNL     1     120.917 119.343  95.440  0.00  0.00    -0.639 NA
ATOM     12  C10 UNL     1     122.140 119.013  90.486  0.00  0.00    +0.841 C 
ATOM     13  C11 UNL     1     118.300 116.638  90.973  0.00  0.00    +0.816 A 
ATOM     14  C12 UNL     1     121.152 120.152  90.606  0.00  0.00    -0.368 C 
ATOM     15  C13 UNL     1     121.694 117.490  93.963  0.00  0.00    -0.517 C 
ATOM     16  C14 UNL     1     120.998 117.875  95.283  0.00  0.00    +0.557 C 
ATOM     17  C15 UNL     1     117.297 117.987  92.752  0.00  0.00    -0.191 A 
ATOM     18  C16 UNL     1     117.165 117.084  91.676  0.00  0.00    -0.280 A 
ATOM     19  C17 UNL     1     120.350 119.714  96.747  0.00  0.00    +0.061 C 
ENDROOT
BRANCH  13  20
ATOM     20  O2  UNL     1     118.135 115.835  89.835  0.00  0.00    -1.295 OA
BRANCH  20  21
ATOM     21  C18 UNL     1     117.843 114.466  89.857  0.00  0.00    +2.882 C 
ATOM     22  C19 UNL     1     118.954 113.486  90.030  0.00  0.00    -1.023 C 
ATOM     23  O4  UNL     1     116.674 114.047  89.639  0.00  0.00    -0.998 OA
ENDBRANCH  20  21
ENDBRANCH  13  20
BRANCH  12  24
ATOM     24  O3  UNL     1     122.220 118.606  89.120  0.00  0.00    -1.299 OA
BRANCH  24  25
ATOM     25  C20 UNL     1     123.391 118.124  88.523  0.00  0.00    +2.903 C 
ATOM     26  C21 UNL     1     124.354 119.087  87.918  0.00  0.00    -1.028 C 
ATOM     27  O5  UNL     1     123.619 116.886  88.454  0.00  0.00    -1.022 OA
ENDBRANCH  24  25
ENDBRANCH  12  24
TORSDOF 4
ENDMDL
MODEL 2
REMARK VINA RESULT:    -7.471      2.039      2.420
REMARK INTER + INTRA:          -9.908
REMARK INTER:                  -9.331
REMARK INTRA:                  -0.578
REMARK UNBOUND:                -0.691
REMARK  Name = Output/Trash/HeroinSDF_ligand_intermediary.pdb
REMARK  7 active torsions:
REMARK  status: ('A' for Active; 'I' for Inactive)
REMARK    1  A    between atoms: N1_11  and  C17_21
REMARK    2  A    between atoms: C10_12  and  O3_17
REMARK    3  A    between atoms: C11_13  and  O2_16
REMARK    4  A    between atoms: O2_16  and  C18_22
REMARK    5  A    between atoms: O3_17  and  C20_25
REMARK    6  A    between atoms: C18_22  and  C19_23
REMARK    7  A    between atoms: C20_25  and  C21_26
REMARK                            x       y       z     vdW  Elec       q    Type
REMARK                         _______ _______ _______ _____ _____    ______ ____
ROOT
ATOM      1  C1  UNL     1     121.232 118.475  94.279  0.00  0.00    +0.732 C 
ATOM      2  C2  UNL     1     119.986 118.008  93.612  0.00  0.00    -0.561 A 
ATOM      3  C3  UNL     1     120.176 116.800  93.013  0.00  0.00    +0.364 A 
ATOM      4  C4  UNL     1     122.279 117.428  93.749  0.00  0.00    -0.031 C 
ATOM      5  C5  UNL     1     121.498 119.936  93.856  0.00  0.00    -0.605 C 
ATOM      6  O1  UNL     1     121.493 116.403  93.126  0.00  0.00    -0.538 OA
ATOM      7  C6  UNL     1     120.262 120.774  94.283  0.00  0.00    +0.962 C 
ATOM      8  C7  UNL     1     118.881 118.804  93.314  0.00  0.00    +0.697 A 
ATOM      9  C8  UNL     1     121.814 120.002  92.380  0.00  0.00    +0.232 C 
ATOM     10  C9  UNL     1     118.934 120.291  93.590  0.00  0.00    -0.653 C 
ATOM     11  N1  UNL     1     120.195 120.745  95.769  0.00  0.00    -0.639 NA
ATOM     12  C10 UNL     1     123.281 118.033  92.724  0.00  0.00    +0.841 C 
ATOM     13  C11 UNL     1     119.157 116.185  92.270  0.00  0.00    +0.816 A 
ATOM     14  C12 UNL     1     122.629 119.080  91.847  0.00  0.00    -0.368 C 
ATOM     15  C13 UNL     1     121.068 118.409  95.817  0.00  0.00    -0.517 C 
ATOM     16  C14 UNL     1     119.991 119.389  96.322  0.00  0.00    +0.557 C 
ATOM     17  C15 UNL     1     117.842 118.229  92.560  0.00  0.00    -0.191 A 
ATOM     18  C16 UNL     1     117.970 116.913  92.066  0.00  0.00    -0.280 A 
ATOM     19  C17 UNL     1     119.234 121.708  96.332  0.00  0.00    +0.061 C 
ENDROOT
BRANCH  13  20
ATOM     20  O2  UNL     1     119.306 114.926  91.669  0.00  0.00    -1.295 OA
BRANCH  20  21
ATOM     21  C18 UNL     1     119.152 114.670  90.301  0.00  0.00    +2.882 C 
ATOM     22  C19 UNL     1     117.864 114.108  89.804  0.00  0.00    -1.023 C 
ATOM     23  O4  UNL     1     120.115 114.817  89.500  0.00  0.00    -0.998 OA
ENDBRANCH  20  21
ENDBRANCH  13  20
BRANCH  12  24
ATOM     24  O3  UNL     1     123.833 117.009  91.896  0.00  0.00    -1.299 OA
BRANCH  24  25
ATOM     25  C20 UNL     1     125.173 116.608  91.950  0.00  0.00    +2.903 C 
ATOM     26  C21 UNL     1     125.588 115.347  91.275  0.00  0.00    -1.028 C 
ATOM     27  O5  UNL     1     126.023 117.280  92.596  0.00  0.00    -1.022 OA
ENDBRANCH  24  25
ENDBRANCH  12  24
TORSDOF 4
ENDMDL
MODEL 3
REMARK VINA RESULT:    -7.410      3.149      6.406
REMARK INTER + INTRA:          -9.833
REMARK INTER:                  -9.209
REMARK INTRA:                  -0.624
REMARK UNBOUND:                -0.691
REMARK  Name = Output/Trash/HeroinSDF_ligand_intermediary.pdb
REMARK  7 active torsions:
REMARK  status: ('A' for Active; 'I' for Inactive)
REMARK    1  A    between atoms: N1_11  and  C17_21
REMARK    2  A    between atoms: C10_12  and  O3_17
REMARK    3  A    between atoms: C11_13  and  O2_16
REMARK    4  A    between atoms: O2_16  and  C18_22
REMARK    5  A    between atoms: O3_17  and  C20_25
REMARK    6  A    between atoms: C18_22  and  C19_23
REMARK    7  A    between atoms: C20_25  and  C21_26
REMARK                            x       y       z     vdW  Elec       q    Type
REMARK                         _______ _______ _______ _____ _____    ______ ____
ROOT
ATOM      1  C1  UNL     1     120.111 116.578  92.513  0.00  0.00    +0.732 C 
ATOM      2  C2  UNL     1     121.421 116.543  91.807  0.00  0.00    -0.561 A 
ATOM      3  C3  UNL     1     122.416 117.031  92.599  0.00  0.00    +0.364 A 
ATOM      4  C4  UNL     1     120.471 117.416  93.793  0.00  0.00    -0.031 C 
ATOM      5  C5  UNL     1     119.067 117.227  91.579  0.00  0.00    -0.605 C 
ATOM      6  O1  UNL     1     121.902 117.496  93.793  0.00  0.00    -0.538 OA
ATOM      7  C6  UNL     1     119.006 116.371  90.285  0.00  0.00    +0.962 C 
ATOM      8  C7  UNL     1     121.595 116.381  90.433  0.00  0.00    +0.697 A 
ATOM      9  C8  UNL     1     119.408 118.680  91.347  0.00  0.00    +0.232 C 
ATOM     10  C9  UNL     1     120.385 116.319  89.527  0.00  0.00    -0.653 C 
ATOM     11  N1  UNL     1     118.491 115.027  90.663  0.00  0.00    -0.639 NA
ATOM     12  C10 UNL     1     119.855 118.845  93.780  0.00  0.00    +0.841 C 
ATOM     13  C11 UNL     1     123.732 117.152  92.128  0.00  0.00    +0.816 A 
ATOM     14  C12 UNL     1     119.812 119.428  92.385  0.00  0.00    -0.368 C 
ATOM     15  C13 UNL     1     119.658 115.140  92.865  0.00  0.00    -0.517 C 
ATOM     16  C14 UNL     1     119.374 114.302  91.602  0.00  0.00    +0.557 C 
ATOM     17  C15 UNL     1     122.899 116.507  89.918  0.00  0.00    -0.191 A 
ATOM     18  C16 UNL     1     123.966 116.862  90.770  0.00  0.00    -0.280 A 
ATOM     19  C17 UNL     1     118.131 114.190  89.507  0.00  0.00    +0.061 C 
ENDROOT
BRANCH  13  20
ATOM     20  O2  UNL     1     124.787 117.617  92.925  0.00  0.00    -1.295 OA
BRANCH  20  21
ATOM     21  C18 UNL     1     125.794 118.488  92.491  0.00  0.00    +2.882 C 
ATOM     22  C19 UNL     1     127.181 117.968  92.314  0.00  0.00    -1.023 C 
ATOM     23  O4  UNL     1     125.568 119.719  92.340  0.00  0.00    -0.998 OA
ENDBRANCH  20  21
ENDBRANCH  13  20
BRANCH  12  24
ATOM     24  O3  UNL     1     120.597 119.720  94.629  0.00  0.00    -1.299 OA
BRANCH  24  25
ATOM     25  C20 UNL     1     120.142 120.156  95.879  0.00  0.00    +2.903 C 
ATOM     26  C21 UNL     1     120.392 119.315  97.083  0.00  0.00    -1.028 C 
ATOM     27  O5  UNL     1     119.489 121.229  95.991  0.00  0.00    -1.022 OA
ENDBRANCH  24  25
ENDBRANCH  12  24
TORSDOF 4
ENDMDL
MODEL 4
REMARK VINA RESULT:    -7.051      2.271      4.363
REMARK INTER + INTRA:          -9.391
REMARK INTER:                  -9.024
REMARK INTRA:                  -0.367
REMARK UNBOUND:                -0.691
REMARK  Name = Output/Trash/HeroinSDF_ligand_intermediary.pdb
REMARK  7 active torsions:
REMARK  status: ('A' for Active; 'I' for Inactive)
REMARK    1  A    between atoms: N1_11  and  C17_21
REMARK    2  A    between atoms: C10_12  and  O3_17
REMARK    3  A    between atoms: C11_13  and  O2_16
REMARK    4  A    between atoms: O2_16  and  C18_22
REMARK    5  A    between atoms: O3_17  and  C20_25
REMARK    6  A    between atoms: C18_22  and  C19_23
REMARK    7  A    between atoms: C20_25  and  C21_26
REMARK                            x       y       z     vdW  Elec       q    Type
REMARK                         _______ _______ _______ _____ _____    ______ ____
ROOT
ATOM      1  C1  UNL     1     122.375 117.383  91.391  0.00  0.00    +0.732 C 
ATOM      2  C2  UNL     1     121.608 118.425  92.128  0.00  0.00    -0.561 A 
ATOM      3  C3  UNL     1     120.330 118.017  92.362  0.00  0.00    +0.364 A 
ATOM      4  C4  UNL     1     121.233 116.373  91.006  0.00  0.00    -0.031 C 
ATOM      5  C5  UNL     1     123.086 118.052  90.196  0.00  0.00    -0.605 C 
ATOM      6  O1  UNL     1     120.095 116.793  91.769  0.00  0.00    -0.538 OA
ATOM      7  C6  UNL     1     124.013 119.158  90.768  0.00  0.00    +0.962 C 
ATOM      8  C7  UNL     1     121.984 119.760  92.267  0.00  0.00    +0.697 A 
ATOM      9  C8  UNL     1     122.069 118.549  89.195  0.00  0.00    +0.232 C 
ATOM     10  C9  UNL     1     123.220 120.266  91.555  0.00  0.00    -0.653 C 
ATOM     11  N1  UNL     1     125.057 118.487  91.588  0.00  0.00    -0.639 NA
ATOM     12  C10 UNL     1     120.895 116.385  89.487  0.00  0.00    +0.841 C 
ATOM     13  C11 UNL     1     119.398 118.856  92.991  0.00  0.00    +0.816 A 
ATOM     14  C12 UNL     1     121.020 117.770  88.892  0.00  0.00    -0.368 C 
ATOM     15  C13 UNL     1     123.432 116.742  92.323  0.00  0.00    -0.517 C 
ATOM     16  C14 UNL     1     124.509 117.758  92.753  0.00  0.00    +0.557 C 
ATOM     17  C15 UNL     1     121.073 120.638  92.883  0.00  0.00    -0.191 A 
ATOM     18  C16 UNL     1     119.797 120.178  93.269  0.00  0.00    -0.280 A 
ATOM     19  C17 UNL     1     126.160 119.379  91.981  0.00  0.00    +0.061 C 
ENDROOT
BRANCH  13  20
ATOM     20  O2  UNL     1     118.085 118.458  93.278  0.00  0.00    -1.295 OA
BRANCH  20  21
ATOM     21  C18 UNL     1     117.296 117.648  92.452  0.00  0.00    +2.882 C 
ATOM     22  C19 UNL     1     116.524 118.274  91.340  0.00  0.00    -1.023 C 
ATOM     23  O4  UNL     1     117.154 116.418  92.691  0.00  0.00    -0.998 OA
ENDBRANCH  20  21
ENDBRANCH  13  20
BRANCH  12  24
ATOM     24  O3  UNL     1     119.571 115.898  89.263  0.00  0.00    -1.299 OA
BRANCH  24  25
ATOM     25  C20 UNL     1     119.222 114.545  89.335  0.00  0.00    +2.903 C 
ATOM     26  C21 UNL     1     117.841 114.167  89.749  0.00  0.00    -1.028 C 
ATOM     27  O5  UNL     1     120.071 113.644  89.095  0.00  0.00    -1.022 OA
ENDBRANCH  24  25
ENDBRANCH  12  24
TORSDOF 4
ENDMDL
MODEL 5
REMARK VINA RESULT:    -7.043      1.627      5.054
REMARK INTER + INTRA:          -9.381
REMARK INTER:                  -8.688
REMARK INTRA:                  -0.693
REMARK UNBOUND:                -0.691
REMARK  Name = Output/Trash/HeroinSDF_ligand_intermediary.pdb
REMARK  7 active torsions:
REMARK  status: ('A' for Active; 'I' for Inactive)
REMARK    1  A    between atoms: N1_11  and  C17_21
REMARK    2  A    between atoms: C10_12  and  O3_17
REMARK    3  A    between atoms: C11_13  and  O2_16
REMARK    4  A    between atoms: O2_16  and  C18_22
REMARK    5  A    between atoms: O3_17  and  C20_25
REMARK    6  A    between atoms: C18_22  and  C19_23
REMARK    7  A    between atoms: C20_25  and  C21_26
REMARK                            x       y       z     vdW  Elec       q    Type
REMARK                         _______ _______ _______ _____ _____    ______ ____
ROOT
ATOM      1  C1  UNL     1     120.507 118.156  91.511  0.00  0.00    +0.732 C 
ATOM      2  C2  UNL     1     121.912 117.775  91.823  0.00  0.00    -0.561 A 
ATOM      3  C3  UNL     1     122.438 116.998  90.836  0.00  0.00    +0.364 A 
ATOM      4  C4  UNL     1     120.209 117.248  90.263  0.00  0.00    -0.031 C 
ATOM      5  C5  UNL     1     119.633 117.870  92.751  0.00  0.00    -0.605 C 
ATOM      6  O1  UNL     1     121.485 116.720  89.877  0.00  0.00    -0.538 OA
ATOM      7  C6  UNL     1     120.213 118.700  93.928  0.00  0.00    +0.962 C 
ATOM      8  C7  UNL     1     122.517 117.872  93.075  0.00  0.00    +0.697 A 
ATOM      9  C8  UNL     1     119.570 116.383  93.012  0.00  0.00    +0.232 C 
ATOM     10  C9  UNL     1     121.700 118.313  94.269  0.00  0.00    -0.653 C 
ATOM     11  N1  UNL     1     120.043 120.138  93.586  0.00  0.00    -0.639 NA
ATOM     12  C10 UNL     1     119.221 116.087  90.575  0.00  0.00    +0.841 C 
ATOM     13  C11 UNL     1     123.732 116.466  90.936  0.00  0.00    +0.816 A 
ATOM     14  C12 UNL     1     119.409 115.546  91.975  0.00  0.00    -0.368 C 
ATOM     15  C13 UNL     1     120.430 119.664  91.168  0.00  0.00    -0.517 C 
ATOM     16  C14 UNL     1     120.791 120.547  92.379  0.00  0.00    +0.557 C 
ATOM     17  C15 UNL     1     123.812 117.340  93.221  0.00  0.00    -0.191 A 
ATOM     18  C16 UNL     1     124.426 116.667  92.144  0.00  0.00    -0.280 A 
ATOM     19  C17 UNL     1     120.304 121.045  94.716  0.00  0.00    +0.061 C 
ENDROOT
BRANCH  13  20
ATOM     20  O2  UNL     1     124.319 115.692  89.924  0.00  0.00    -1.295 OA
BRANCH  20  21
ATOM     21  C18 UNL     1     124.790 116.193  88.705  0.00  0.00    +2.882 C 
ATOM     22  C19 UNL     1     124.012 115.932  87.459  0.00  0.00    -1.023 C 
ATOM     23  O4  UNL     1     125.905 116.778  88.629  0.00  0.00    -0.998 OA
ENDBRANCH  20  21
ENDBRANCH  13  20
BRANCH  12  24
ATOM     24  O3  UNL     1     119.384 115.023  89.637  0.00  0.00    -1.299 OA
BRANCH  24  25
ATOM     25  C20 UNL     1     118.743 113.784  89.754  0.00  0.00    +2.903 C 
ATOM     26  C21 UNL     1     119.562 112.550  89.918  0.00  0.00    -1.028 C 
ATOM     27  O5  UNL     1     117.488 113.696  89.681  0.00  0.00    -1.022 OA
ENDBRANCH  24  25
ENDBRANCH  12  24
TORSDOF 4
ENDMDL
MODEL 6
REMARK VINA RESULT:    -6.906      2.652      3.295
REMARK INTER + INTRA:          -9.211
REMARK INTER:                  -8.587
REMARK INTRA:                  -0.624
REMARK UNBOUND:                -0.691
REMARK  Name = Output/Trash/HeroinSDF_ligand_intermediary.pdb
REMARK  7 active torsions:
REMARK  status: ('A' for Active; 'I' for Inactive)
REMARK    1  A    between atoms: N1_11  and  C17_21
REMARK    2  A    between atoms: C10_12  and  O3_17
REMARK    3  A    between atoms: C11_13  and  O2_16
REMARK    4  A    between atoms: O2_16  and  C18_22
REMARK    5  A    between atoms: O3_17  and  C20_25
REMARK    6  A    between atoms: C18_22  and  C19_23
REMARK    7  A    between atoms: C20_25  and  C21_26
REMARK                            x       y       z     vdW  Elec       q    Type
REMARK                         _______ _______ _______ _____ _____    ______ ____
ROOT
ATOM      1  C1  UNL     1     122.644 118.158  93.282  0.00  0.00    +0.732 C 
ATOM      2  C2  UNL     1     121.669 118.331  92.171  0.00  0.00    -0.561 A 
ATOM      3  C3  UNL     1     122.034 117.599  91.082  0.00  0.00    +0.364 A 
ATOM      4  C4  UNL     1     123.802 117.377  92.559  0.00  0.00    -0.031 C 
ATOM      5  C5  UNL     1     123.032 119.553  93.817  0.00  0.00    -0.605 C 
ATOM      6  O1  UNL     1     123.249 116.980  91.297  0.00  0.00    -0.538 OA
ATOM      7  C6  UNL     1     121.727 120.246  94.293  0.00  0.00    +0.962 C 
ATOM      8  C7  UNL     1     120.714 119.343  92.083  0.00  0.00    +0.697 A 
ATOM      9  C8  UNL     1     123.794 120.321  92.763  0.00  0.00    +0.232 C 
ATOM     10  C9  UNL     1     120.681 120.433  93.132  0.00  0.00    -0.653 C 
ATOM     11  N1  UNL     1     121.198 119.460  95.441  0.00  0.00    -0.639 NA
ATOM     12  C10 UNL     1     125.076 118.242  92.338  0.00  0.00    +0.841 C 
ATOM     13  C11 UNL     1     121.298 117.648  89.888  0.00  0.00    +0.816 A 
ATOM     14  C12 UNL     1     124.734 119.686  92.046  0.00  0.00    -0.368 C 
ATOM     15  C13 UNL     1     122.007 117.331  94.425  0.00  0.00    -0.517 C 
ATOM     16  C14 UNL     1     120.828 118.074  95.083  0.00  0.00    +0.557 C 
ATOM     17  C15 UNL     1     119.962 119.435  90.897  0.00  0.00    -0.191 A 
ATOM     18  C16 UNL     1     120.236 118.569  89.817  0.00  0.00    -0.280 A 
ATOM     19  C17 UNL     1     120.110 120.139  96.165  0.00  0.00    +0.061 C 
ENDROOT
BRANCH  13  20
ATOM     20  O2  UNL     1     121.625 116.883  88.759  0.00  0.00    -1.295 OA
BRANCH  20  21
ATOM     21  C18 UNL     1     120.693 116.274  87.910  0.00  0.00    +2.882 C 
ATOM     22  C19 UNL     1     119.972 115.054  88.374  0.00  0.00    -1.023 C 
ATOM     23  O4  UNL     1     120.527 116.682  86.728  0.00  0.00    -0.998 OA
ENDBRANCH  20  21
ENDBRANCH  13  20
BRANCH  12  24
ATOM     24  O3  UNL     1     125.857 117.721  91.263  0.00  0.00    -1.299 OA
BRANCH  24  25
ATOM     25  C20 UNL     1     126.971 116.893  91.446  0.00  0.00    +2.903 C 
ATOM     26  C21 UNL     1     126.767 115.442  91.718  0.00  0.00    -1.028 C 
ATOM     27  O5  UNL     1     128.139 117.366  91.424  0.00  0.00    -1.022 OA
ENDBRANCH  24  25
ENDBRANCH  12  24
TORSDOF 4
ENDMDL
MODEL 7
REMARK VINA RESULT:    -6.784      2.783      5.862
REMARK INTER + INTRA:          -9.062
REMARK INTER:                  -8.540
REMARK INTRA:                  -0.521
REMARK UNBOUND:                -0.691
REMARK  Name = Output/Trash/HeroinSDF_ligand_intermediary.pdb
REMARK  7 active torsions:
REMARK  status: ('A' for Active; 'I' for Inactive)
REMARK    1  A    between atoms: N1_11  and  C17_21
REMARK    2  A    between atoms: C10_12  and  O3_17
REMARK    3  A    between atoms: C11_13  and  O2_16
REMARK    4  A    between atoms: O2_16  and  C18_22
REMARK    5  A    between atoms: O3_17  and  C20_25
REMARK    6  A    between atoms: C18_22  and  C19_23
REMARK    7  A    between atoms: C20_25  and  C21_26
REMARK                            x       y       z     vdW  Elec       q    Type
REMARK                         _______ _______ _______ _____ _____    ______ ____
ROOT
ATOM      1  C1  UNL     1     122.891 117.281  91.233  0.00  0.00    +0.732 C 
ATOM      2  C2  UNL     1     122.820 118.423  92.185  0.00  0.00    -0.561 A 
ATOM      3  C3  UNL     1     121.701 118.347  92.958  0.00  0.00    +0.364 A 
ATOM      4  C4  UNL     1     121.467 116.639  91.413  0.00  0.00    -0.031 C 
ATOM      5  C5  UNL     1     123.185 117.835  89.823  0.00  0.00    -0.605 C 
ATOM      6  O1  UNL     1     120.916 117.279  92.572  0.00  0.00    -0.538 OA
ATOM      7  C6  UNL     1     124.528 118.610  89.900  0.00  0.00    +0.962 C 
ATOM      8  C7  UNL     1     123.566 119.597  92.097  0.00  0.00    +0.697 A 
ATOM      9  C8  UNL     1     122.018 118.660  89.334  0.00  0.00    +0.232 C 
ATOM     10  C9  UNL     1     124.473 119.819  90.906  0.00  0.00    -0.653 C 
ATOM     11  N1  UNL     1     125.594 117.624  90.222  0.00  0.00    -0.639 NA
ATOM     12  C10 UNL     1     120.538 116.863  90.185  0.00  0.00    +0.841 C 
ATOM     13  C11 UNL     1     121.388 119.346  93.891  0.00  0.00    +0.816 A 
ATOM     14  C12 UNL     1     120.770 118.211  89.539  0.00  0.00    -0.368 C 
ATOM     15  C13 UNL     1     124.025 116.312  91.649  0.00  0.00    -0.517 C 
ATOM     16  C14 UNL     1     125.413 116.972  91.537  0.00  0.00    +0.557 C 
ATOM     17  C15 UNL     1     123.275 120.631  93.007  0.00  0.00    -0.191 A 
ATOM     18  C16 UNL     1     122.208 120.490  93.920  0.00  0.00    -0.280 A 
ATOM     19  C17 UNL     1     126.957 118.162  90.071  0.00  0.00    +0.061 C 
ENDROOT
BRANCH  13  20
ATOM     20  O2  UNL     1     120.263 119.283  94.727  0.00  0.00    -1.295 OA
BRANCH  20  21
ATOM     21  C18 UNL     1     119.731 120.368  95.435  0.00  0.00    +2.882 C 
ATOM     22  C19 UNL     1     119.016 121.444  94.691  0.00  0.00    -1.023 C 
ATOM     23  O4  UNL     1     119.930 120.496  96.674  0.00  0.00    -0.998 OA
ENDBRANCH  20  21
ENDBRANCH  13  20
BRANCH  12  24
ATOM     24  O3  UNL     1     119.166 116.759  90.567  0.00  0.00    -1.299 OA
BRANCH  24  25
ATOM     25  C20 UNL     1     118.344 115.682  90.216  0.00  0.00    +2.903 C 
ATOM     26  C21 UNL     1     118.919 114.543  89.446  0.00  0.00    -1.028 C 
ATOM     27  O5  UNL     1     117.117 115.683  90.507  0.00  0.00    -1.022 OA
ENDBRANCH  24  25
ENDBRANCH  12  24
TORSDOF 4
ENDMDL
MODEL 8
REMARK VINA RESULT:    -6.709      2.516      3.928
REMARK INTER + INTRA:          -8.969
REMARK INTER:                  -8.234
REMARK INTRA:                  -0.735
REMARK UNBOUND:                -0.691
REMARK  Name = Output/Trash/HeroinSDF_ligand_intermediary.pdb
REMARK  7 active torsions:
REMARK  status: ('A' for Active; 'I' for Inactive)
REMARK    1  A    between atoms: N1_11  and  C17_21
REMARK    2  A    between atoms: C10_12  and  O3_17
REMARK    3  A    between atoms: C11_13  and  O2_16
REMARK    4  A    between atoms: O2_16  and  C18_22
REMARK    5  A    between atoms: O3_17  and  C20_25
REMARK    6  A    between atoms: C18_22  and  C19_23
REMARK    7  A    between atoms: C20_25  and  C21_26
REMARK                            x       y       z     vdW  Elec       q    Type
REMARK                         _______ _______ _______ _____ _____    ______ ____
ROOT
ATOM      1  C1  UNL     1     122.459 117.001  90.514  0.00  0.00    +0.732 C 
ATOM      2  C2  UNL     1     121.186 117.549  91.056  0.00  0.00    -0.561 A 
ATOM      3  C3  UNL     1     120.223 116.587  91.108  0.00  0.00    +0.364 A 
ATOM      4  C4  UNL     1     121.998 115.583  90.014  0.00  0.00    -0.031 C 
ATOM      5  C5  UNL     1     122.970 117.949  89.408  0.00  0.00    -0.605 C 
ATOM      6  O1  UNL     1     120.684 115.407  90.560  0.00  0.00    -0.538 OA
ATOM      7  C6  UNL     1     123.168 119.348  90.052  0.00  0.00    +0.962 C 
ATOM      8  C7  UNL     1     120.872 118.902  91.172  0.00  0.00    +0.697 A 
ATOM      9  C8  UNL     1     122.023 117.935  88.231  0.00  0.00    +0.232 C 
ATOM     10  C9  UNL     1     121.832 119.941  90.636  0.00  0.00    -0.653 C 
ATOM     11  N1  UNL     1     124.249 119.223  91.067  0.00  0.00    -0.639 NA
ATOM     12  C10 UNL     1     121.954 115.467  88.463  0.00  0.00    +0.841 C 
ATOM     13  C11 UNL     1     118.917 116.881  91.530  0.00  0.00    +0.816 A 
ATOM     14  C12 UNL     1     121.522 116.763  87.813  0.00  0.00    -0.368 C 
ATOM     15  C13 UNL     1     123.519 116.908  91.639  0.00  0.00    -0.517 C 
ATOM     16  C14 UNL     1     123.914 118.299  92.172  0.00  0.00    +0.557 C 
ATOM     17  C15 UNL     1     119.569 119.241  91.581  0.00  0.00    -0.191 A 
ATOM     18  C16 UNL     1     118.606 118.230  91.787  0.00  0.00    -0.280 A 
ATOM     19  C17 UNL     1     124.730 120.519  91.575  0.00  0.00    +0.061 C 
ENDROOT
BRANCH  13  20
ATOM     20  O2  UNL     1     117.910 115.910  91.628  0.00  0.00    -1.295 OA
BRANCH  20  21
ATOM     21  C18 UNL     1     117.079 115.511  90.575  0.00  0.00    +2.882 C 
ATOM     22  C19 UNL     1     117.464 114.329  89.750  0.00  0.00    -1.023 C 
ATOM     23  O4  UNL     1     116.065 116.188  90.255  0.00  0.00    -0.998 OA
ENDBRANCH  20  21
ENDBRANCH  13  20
BRANCH  12  24
ATOM     24  O3  UNL     1     121.065 114.424  88.062  0.00  0.00    -1.299 OA
BRANCH  24  25
ATOM     25  C20 UNL     1     121.338 113.064  88.241  0.00  0.00    +2.903 C 
ATOM     26  C21 UNL     1     122.437 112.428  87.460  0.00  0.00    -1.028 C 
ATOM     27  O5  UNL     1     120.641 112.362  89.022  0.00  0.00    -1.022 OA
ENDBRANCH  24  25
ENDBRANCH  12  24
TORSDOF 4
ENDMDL
MODEL 9
REMARK VINA RESULT:    -6.575      4.980      8.545
REMARK INTER + INTRA:          -8.804
REMARK INTER:                  -8.165
REMARK INTRA:                  -0.638
REMARK UNBOUND:                -0.691
REMARK  Name = Output/Trash/HeroinSDF_ligand_intermediary.pdb
REMARK  7 active torsions:
REMARK  status: ('A' for Active; 'I' for Inactive)
REMARK    1  A    between atoms: N1_11  and  C17_21
REMARK    2  A    between atoms: C10_12  and  O3_17
REMARK    3  A    between atoms: C11_13  and  O2_16
REMARK    4  A    between atoms: O2_16  and  C18_22
REMARK    5  A    between atoms: O3_17  and  C20_25
REMARK    6  A    between atoms: C18_22  and  C19_23
REMARK    7  A    between atoms: C20_25  and  C21_26
REMARK                            x       y       z     vdW  Elec       q    Type
REMARK                         _______ _______ _______ _____ _____    ______ ____
ROOT
ATOM      1  C1  UNL     1     126.794 120.860  89.458  0.00  0.00    +0.732 C 
ATOM      2  C2  UNL     1     127.852 120.099  90.178  0.00  0.00    -0.561 A 
ATOM      3  C3  UNL     1     127.489 118.797  90.345  0.00  0.00    +0.364 A 
ATOM      4  C4  UNL     1     125.616 119.819  89.448  0.00  0.00    -0.031 C 
ATOM      5  C5  UNL     1     126.510 122.161  90.237  0.00  0.00    -0.605 C 
ATOM      6  O1  UNL     1     126.209 118.585  89.875  0.00  0.00    -0.538 OA
ATOM      7  C6  UNL     1     127.842 122.954  90.317  0.00  0.00    +0.962 C 
ATOM      8  C7  UNL     1     128.904 120.661  90.899  0.00  0.00    +0.697 A 
ATOM      9  C8  UNL     1     125.895 121.841  91.580  0.00  0.00    +0.232 C 
ATOM     10  C9  UNL     1     128.974 122.163  91.072  0.00  0.00    -0.653 C 
ATOM     11  N1  UNL     1     128.217 123.339  88.930  0.00  0.00    -0.639 NA
ATOM     12  C10 UNL     1     124.449 120.210  90.399  0.00  0.00    +0.841 C 
ATOM     13  C11 UNL     1     128.302 117.896  91.049  0.00  0.00    +0.816 A 
ATOM     14  C12 UNL     1     124.947 120.895  91.653  0.00  0.00    -0.368 C 
ATOM     15  C13 UNL     1     127.273 121.213  88.029  0.00  0.00    -0.517 C 
ATOM     16  C14 UNL     1     128.474 122.180  88.049  0.00  0.00    +0.557 C 
ATOM     17  C15 UNL     1     129.737 119.793  91.630  0.00  0.00    -0.191 A 
ATOM     18  C16 UNL     1     129.451 118.412  91.679  0.00  0.00    -0.280 A 
ATOM     19  C17 UNL     1     129.316 124.317  88.868  0.00  0.00    +0.061 C 
ENDROOT
BRANCH  13  20
ATOM     20  O2  UNL     1     127.977 116.541  91.211  0.00  0.00    -1.295 OA
BRANCH  20  21
ATOM     21  C18 UNL     1     126.904 116.062  91.973  0.00  0.00    +2.882 C 
ATOM     22  C19 UNL     1     126.146 114.870  91.494  0.00  0.00    -1.023 C 
ATOM     23  O4  UNL     1     126.511 116.676  93.001  0.00  0.00    -0.998 OA
ENDBRANCH  20  21
ENDBRANCH  13  20
BRANCH  12  24
ATOM     24  O3  UNL     1     123.692 119.056  90.767  0.00  0.00    -1.299 OA
BRANCH  24  25
ATOM     25  C20 UNL     1     122.419 119.118  91.345  0.00  0.00    +2.903 C 
ATOM     26  C21 UNL     1     121.324 119.832  90.630  0.00  0.00    -1.028 C 
ATOM     27  O5  UNL     1     122.198 118.613  92.479  0.00  0.00    -1.022 OA
ENDBRANCH  24  25
ENDBRANCH  12  24
TORSDOF 4
ENDMDL
