MODEL 1
REMARK VINA RESULT:    -7.723      0.000      0.000
REMARK INTER + INTRA:          -8.174
REMARK INTER:                  -8.174
REMARK INTRA:                   0.000
REMARK UNBOUND:                 0.000
REMARK  Name = Output/Trash/MorphineSDF_ligand_intermediary.pdb
REMARK  3 active torsions:
REMARK  status: ('A' for Active; 'I' for Inactive)
REMARK    1  A    between atoms: O2_2  and  C10_14
REMARK    2  A    between atoms: O3_3  and  C16_20
REMARK    3  A    between atoms: N1_4  and  C14_18
REMARK                            x       y       z     vdW  Elec       q    Type
REMARK                         _______ _______ _______ _____ _____    ______ ____
ROOT
ATOM      1  O1  UNL     1     120.513 151.784 138.232  0.00  0.00    -0.449 OA
ATOM      2  N1  UNL     1     119.740 152.241 143.406  0.00  0.00    -0.644 NA
ATOM      3  C1  UNL     1     120.365 152.269 140.567  0.00  0.00    +0.651 C 
ATOM      4  C2  UNL     1     119.899 153.530 141.328  0.00  0.00    -0.615 C 
ATOM      5  C3  UNL     1     118.943 153.063 142.459  0.00  0.00    +0.961 C 
ATOM      6  C4  UNL     1     121.180 152.547 139.249  0.00  0.00    +0.075 C 
ATOM      7  C5  UNL     1     121.124 151.335 141.538  0.00  0.00    -0.509 C 
ATOM      8  C6  UNL     1     119.160 151.581 140.027  0.00  0.00    -0.625 A 
ATOM      9  C7  UNL     1     117.669 152.319 141.909  0.00  0.00    -0.649 C 
ATOM     10  C8  UNL     1     120.293 151.012 142.797  0.00  0.00    +0.547 C 
ATOM     11  C9  UNL     1     117.910 151.530 140.640  0.00  0.00    +0.652 A 
ATOM     12  C10 UNL     1     121.210 154.051 138.868  0.00  0.00    +0.771 C 
ATOM     13  C11 UNL     1     119.292 154.524 140.365  0.00  0.00    +0.326 C 
ATOM     14  C12 UNL     1     119.316 151.291 138.707  0.00  0.00    +0.450 A 
ATOM     15  C13 UNL     1     119.898 154.740 139.187  0.00  0.00    -0.545 C 
ATOM     16  C14 UNL     1     119.039 151.948 144.666  0.00  0.00    +0.057 C 
ATOM     17  C15 UNL     1     116.853 150.927 139.931  0.00  0.00    -0.058 A 
ATOM     18  C16 UNL     1     118.295 150.692 137.969  0.00  0.00    +0.912 A 
ATOM     19  C17 UNL     1     117.058 150.472 138.609  0.00  0.00    -0.558 A 
ENDROOT
BRANCH  12  20
ATOM     20  O2  UNL     1     121.519 154.193 137.507  0.00  0.00    -1.004 OA
ATOM     21  H1  UNL     1     121.734 153.286 137.166  0.00  0.00    +0.647 HD
ENDBRANCH  12  20
BRANCH  18  22
ATOM     22  O3  UNL     1     118.492 150.358 136.633  0.00  0.00    -1.068 OA
ATOM     23  H2  UNL     1     119.421 150.314 136.232  0.00  0.00    +0.674 HD
ENDBRANCH  18  22
TORSDOF 2
ENDMDL
MODEL 2
REMARK VINA RESULT:    -6.965      2.406      4.617
REMARK INTER + INTRA:          -7.372
REMARK INTER:                  -7.372
REMARK INTRA:                   0.000
REMARK UNBOUND:                 0.000
REMARK  Name = Output/Trash/MorphineSDF_ligand_intermediary.pdb
REMARK  3 active torsions:
REMARK  status: ('A' for Active; 'I' for Inactive)
REMARK    1  A    between atoms: O2_2  and  C10_14
REMARK    2  A    between atoms: O3_3  and  C16_20
REMARK    3  A    between atoms: N1_4  and  C14_18
REMARK                            x       y       z     vdW  Elec       q    Type
REMARK                         _______ _______ _______ _____ _____    ______ ____
ROOT
ATOM      1  O1  UNL     1     121.042 150.581 142.021  0.00  0.00    -0.449 OA
ATOM      2  N1  UNL     1     119.198 155.367 140.896  0.00  0.00    -0.644 NA
ATOM      3  C1  UNL     1     120.116 152.626 141.204  0.00  0.00    +0.651 C 
ATOM      4  C2  UNL     1     118.712 152.977 140.665  0.00  0.00    -0.615 C 
ATOM      5  C3  UNL     1     118.269 154.299 141.348  0.00  0.00    +0.961 C 
ATOM      6  C4  UNL     1     120.657 151.207 140.788  0.00  0.00    +0.075 C 
ATOM      7  C5  UNL     1     121.104 153.758 140.835  0.00  0.00    -0.509 C 
ATOM      8  C6  UNL     1     120.024 152.484 142.683  0.00  0.00    -0.625 A 
ATOM      9  C7  UNL     1     118.180 154.174 142.915  0.00  0.00    -0.649 C 
ATOM     10  C8  UNL     1     120.601 155.139 141.305  0.00  0.00    +0.547 C 
ATOM     11  C9  UNL     1     119.185 153.217 143.519  0.00  0.00    +0.652 A 
ATOM     12  C10 UNL     1     119.591 150.351 140.053  0.00  0.00    +0.771 C 
ATOM     13  C11 UNL     1     117.768 151.816 140.877  0.00  0.00    +0.326 C 
ATOM     14  C12 UNL     1     120.603 151.324 143.097  0.00  0.00    +0.450 A 
ATOM     15  C13 UNL     1     118.201 150.571 140.620  0.00  0.00    -0.545 C 
ATOM     16  C14 UNL     1     118.750 156.725 141.247  0.00  0.00    +0.057 C 
ATOM     17  C15 UNL     1     119.150 152.871 144.884  0.00  0.00    -0.058 A 
ATOM     18  C16 UNL     1     120.593 150.946 144.438  0.00  0.00    +0.912 A 
ATOM     19  C17 UNL     1     119.887 151.758 145.349  0.00  0.00    -0.558 A 
ENDROOT
BRANCH  12  20
ATOM     20  O2  UNL     1     119.937 148.993 140.123  0.00  0.00    -1.004 OA
ATOM     21  H1  UNL     1     119.841 148.722 141.073  0.00  0.00    +0.647 HD
ENDBRANCH  12  20
BRANCH  18  22
ATOM     22  O3  UNL     1     121.234 149.781 144.849  0.00  0.00    -1.068 OA
ATOM     23  H2  UNL     1     120.798 149.142 145.503  0.00  0.00    +0.674 HD
ENDBRANCH  18  22
TORSDOF 2
ENDMDL
MODEL 3
REMARK VINA RESULT:    -6.819      2.197      4.101
REMARK INTER + INTRA:          -7.218
REMARK INTER:                  -7.218
REMARK INTRA:                   0.000
REMARK UNBOUND:                 0.000
REMARK  Name = Output/Trash/MorphineSDF_ligand_intermediary.pdb
REMARK  3 active torsions:
REMARK  status: ('A' for Active; 'I' for Inactive)
REMARK    1  A    between atoms: O2_2  and  C10_14
REMARK    2  A    between atoms: O3_3  and  C16_20
REMARK    3  A    between atoms: N1_4  and  C14_18
REMARK                            x       y       z     vdW  Elec       q    Type
REMARK                         _______ _______ _______ _____ _____    ______ ____
ROOT
ATOM      1  O1  UNL     1     117.723 150.582 141.173  0.00  0.00    -0.449 OA
ATOM      2  N1  UNL     1     119.425 155.342 142.597  0.00  0.00    -0.644 NA
ATOM      3  C1  UNL     1     118.504 152.622 142.142  0.00  0.00    +0.651 C 
ATOM      4  C2  UNL     1     119.749 152.945 142.995  0.00  0.00    -0.615 C 
ATOM      5  C3  UNL     1     120.394 154.231 142.409  0.00  0.00    +0.961 C 
ATOM      6  C4  UNL     1     117.825 151.235 142.447  0.00  0.00    +0.075 C 
ATOM      7  C5  UNL     1     117.500 153.797 142.234  0.00  0.00    -0.509 C 
ATOM      8  C6  UNL     1     118.943 152.430 140.732  0.00  0.00    -0.625 A 
ATOM      9  C7  UNL     1     120.852 154.053 140.913  0.00  0.00    -0.649 C 
ATOM     10  C8  UNL     1     118.155 155.145 141.867  0.00  0.00    +0.547 C 
ATOM     11  C9  UNL     1     119.987 153.109 140.107  0.00  0.00    +0.652 A 
ATOM     12  C10 UNL     1     118.649 150.370 143.438  0.00  0.00    +0.771 C 
ATOM     13  C11 UNL     1     120.671 151.749 143.044  0.00  0.00    +0.326 C 
ATOM     14  C12 UNL     1     118.437 151.277 140.218  0.00  0.00    +0.450 A 
ATOM     15  C13 UNL     1     120.141 150.528 143.218  0.00  0.00    -0.545 C 
ATOM     16  C14 UNL     1     119.996 156.672 142.334  0.00  0.00    +0.057 C 
ATOM     17  C15 UNL     1     120.335 152.719 138.799  0.00  0.00    -0.058 A 
ATOM     18  C16 UNL     1     118.756 150.856 138.927  0.00  0.00    +0.912 A 
ATOM     19  C17 UNL     1     119.690 151.616 138.195  0.00  0.00    -0.558 A 
ENDROOT
BRANCH  12  20
ATOM     20  O2  UNL     1     118.278 149.022 143.317  0.00  0.00    -1.004 OA
ATOM     21  H1  UNL     1     117.914 148.745 144.198  0.00  0.00    +0.647 HD
ENDBRANCH  12  20
BRANCH  18  22
ATOM     22  O3  UNL     1     118.187 149.699 138.401  0.00  0.00    -1.068 OA
ATOM     23  H2  UNL     1     117.991 149.613 137.411  0.00  0.00    +0.674 HD
ENDBRANCH  18  22
TORSDOF 2
ENDMDL
MODEL 4
REMARK VINA RESULT:    -6.511      2.081      4.594
REMARK INTER + INTRA:          -6.892
REMARK INTER:                  -6.892
REMARK INTRA:                   0.000
REMARK UNBOUND:                 0.000
REMARK  Name = Output/Trash/MorphineSDF_ligand_intermediary.pdb
REMARK  3 active torsions:
REMARK  status: ('A' for Active; 'I' for Inactive)
REMARK    1  A    between atoms: O2_2  and  C10_14
REMARK    2  A    between atoms: O3_3  and  C16_20
REMARK    3  A    between atoms: N1_4  and  C14_18
REMARK                            x       y       z     vdW  Elec       q    Type
REMARK                         _______ _______ _______ _____ _____    ______ ____
ROOT
ATOM      1  O1  UNL     1     120.477 153.714 138.440  0.00  0.00    -0.449 OA
ATOM      2  N1  UNL     1     119.836 155.482 143.343  0.00  0.00    -0.644 NA
ATOM      3  C1  UNL     1     119.981 154.245 140.716  0.00  0.00    +0.651 C 
ATOM      4  C2  UNL     1     120.164 153.444 142.023  0.00  0.00    -0.615 C 
ATOM      5  C3  UNL     1     120.812 154.396 143.066  0.00  0.00    +0.961 C 
ATOM      6  C4  UNL     1     119.528 153.397 139.470  0.00  0.00    +0.075 C 
ATOM      7  C5  UNL     1     119.040 155.445 140.979  0.00  0.00    -0.509 C 
ATOM      8  C6  UNL     1     121.319 154.726 140.274  0.00  0.00    -0.625 A 
ATOM      9  C7  UNL     1     122.221 154.928 142.609  0.00  0.00    -0.649 C 
ATOM     10  C8  UNL     1     119.527 156.312 142.159  0.00  0.00    +0.547 C 
ATOM     11  C9  UNL     1     122.364 155.105 141.113  0.00  0.00    +0.652 A 
ATOM     12  C10 UNL     1     119.522 151.871 139.753  0.00  0.00    +0.771 C 
ATOM     13  C11 UNL     1     120.952 152.182 141.754  0.00  0.00    +0.326 C 
ATOM     14  C12 UNL     1     121.531 154.435 138.962  0.00  0.00    +0.450 A 
ATOM     15  C13 UNL     1     120.668 151.461 140.658  0.00  0.00    -0.545 C 
ATOM     16  C14 UNL     1     120.194 156.313 144.504  0.00  0.00    +0.057 C 
ATOM     17  C15 UNL     1     123.600 155.429 140.520  0.00  0.00    -0.058 A 
ATOM     18  C16 UNL     1     122.739 154.741 138.336  0.00  0.00    +0.912 A 
ATOM     19  C17 UNL     1     123.773 155.285 139.125  0.00  0.00    -0.558 A 
ENDROOT
BRANCH  12  20
ATOM     20  O2  UNL     1     119.576 151.161 138.544  0.00  0.00    -1.004 OA
ATOM     21  H1  UNL     1     120.505 150.821 138.453  0.00  0.00    +0.647 HD
ENDBRANCH  12  20
BRANCH  18  22
ATOM     22  O3  UNL     1     122.918 154.481 136.981  0.00  0.00    -1.068 OA
ATOM     23  H2  UNL     1     123.349 155.161 136.367  0.00  0.00    +0.674 HD
ENDBRANCH  18  22
TORSDOF 2
ENDMDL
MODEL 5
REMARK VINA RESULT:    -6.487      3.194      5.360
REMARK INTER + INTRA:          -6.866
REMARK INTER:                  -6.866
REMARK INTRA:                   0.000
REMARK UNBOUND:                 0.000
REMARK  Name = Output/Trash/MorphineSDF_ligand_intermediary.pdb
REMARK  3 active torsions:
REMARK  status: ('A' for Active; 'I' for Inactive)
REMARK    1  A    between atoms: O2_2  and  C10_14
REMARK    2  A    between atoms: O3_3  and  C16_20
REMARK    3  A    between atoms: N1_4  and  C14_18
REMARK                            x       y       z     vdW  Elec       q    Type
REMARK                         _______ _______ _______ _____ _____    ______ ____
ROOT
ATOM      1  O1  UNL     1     120.723 152.650 144.189  0.00  0.00    -0.449 OA
ATOM      2  N1  UNL     1     119.130 150.179 139.838  0.00  0.00    -0.644 NA
ATOM      3  C1  UNL     1     120.007 151.239 142.399  0.00  0.00    +0.651 C 
ATOM      4  C2  UNL     1     118.808 150.275 142.266  0.00  0.00    -0.615 C 
ATOM      5  C3  UNL     1     118.144 150.547 140.888  0.00  0.00    +0.961 C 
ATOM      6  C4  UNL     1     120.690 151.264 143.818  0.00  0.00    +0.075 C 
ATOM      7  C5  UNL     1     121.023 150.953 141.267  0.00  0.00    -0.509 C 
ATOM      8  C6  UNL     1     119.497 152.633 142.294  0.00  0.00    -0.625 A 
ATOM      9  C7  UNL     1     117.612 152.022 140.751  0.00  0.00    -0.649 C 
ATOM     10  C8  UNL     1     120.361 150.997 139.874  0.00  0.00    +0.547 C 
ATOM     11  C9  UNL     1     118.429 153.050 141.502  0.00  0.00    +0.652 A 
ATOM     12  C10 UNL     1     119.909 150.436 144.873  0.00  0.00    +0.771 C 
ATOM     13  C11 UNL     1     117.880 150.431 143.449  0.00  0.00    +0.326 C 
ATOM     14  C12 UNL     1     119.968 153.402 143.313  0.00  0.00    +0.450 A 
ATOM     15  C13 UNL     1     118.409 150.543 144.677  0.00  0.00    -0.545 C 
ATOM     16  C14 UNL     1     118.556 150.129 138.484  0.00  0.00    +0.057 C 
ATOM     17  C15 UNL     1     118.013 154.391 141.611  0.00  0.00    -0.058 A 
ATOM     18  C16 UNL     1     119.583 154.734 143.456  0.00  0.00    +0.912 A 
ATOM     19  C17 UNL     1     118.619 155.244 142.562  0.00  0.00    -0.558 A 
ENDROOT
BRANCH  12  20
ATOM     20  O2  UNL     1     120.264 150.854 146.165  0.00  0.00    -1.004 OA
ATOM     21  H1  UNL     1     120.317 150.037 146.726  0.00  0.00    +0.647 HD
ENDBRANCH  12  20
BRANCH  18  22
ATOM     22  O3  UNL     1     120.116 155.518 144.475  0.00  0.00    -1.068 OA
ATOM     23  H2  UNL     1     120.675 155.111 145.215  0.00  0.00    +0.674 HD
ENDBRANCH  18  22
TORSDOF 2
ENDMDL
MODEL 6
REMARK VINA RESULT:    -6.446     19.709     21.426
REMARK INTER + INTRA:          -6.823
REMARK INTER:                  -6.823
REMARK INTRA:                   0.000
REMARK UNBOUND:                 0.000
REMARK  Name = Output/Trash/MorphineSDF_ligand_intermediary.pdb
REMARK  3 active torsions:
REMARK  status: ('A' for Active; 'I' for Inactive)
REMARK    1  A    between atoms: O2_2  and  C10_14
REMARK    2  A    between atoms: O3_3  and  C16_20
REMARK    3  A    between atoms: N1_4  and  C14_18
REMARK                            x       y       z     vdW  Elec       q    Type
REMARK                         _______ _______ _______ _____ _____    ______ ____
ROOT
ATOM      1  O1  UNL     1     132.932 141.449 125.244  0.00  0.00    -0.449 OA
ATOM      2  N1  UNL     1     130.791 146.201 124.601  0.00  0.00    -0.644 NA
ATOM      3  C1  UNL     1     131.860 143.498 124.642  0.00  0.00    +0.651 C 
ATOM      4  C2  UNL     1     130.411 143.812 124.209  0.00  0.00    -0.615 C 
ATOM      5  C3  UNL     1     129.943 145.053 125.017  0.00  0.00    +0.961 C 
ATOM      6  C4  UNL     1     132.445 142.146 124.087  0.00  0.00    +0.075 C 
ATOM      7  C5  UNL     1     132.767 144.706 124.311  0.00  0.00    -0.509 C 
ATOM      8  C6  UNL     1     131.861 143.239 126.108  0.00  0.00    -0.625 A 
ATOM      9  C7  UNL     1     129.953 144.805 126.571  0.00  0.00    -0.649 C 
ATOM     10  C8  UNL     1     132.224 146.018 124.914  0.00  0.00    +0.547 C 
ATOM     11  C9  UNL     1     131.037 143.861 127.043  0.00  0.00    +0.652 A 
ATOM     12  C10 UNL     1     131.382 141.291 123.346  0.00  0.00    +0.771 C 
ATOM     13  C11 UNL     1     129.540 142.589 124.380  0.00  0.00    +0.326 C 
ATOM     14  C12 UNL     1     132.520 142.084 126.397  0.00  0.00    +0.450 A 
ATOM     15  C13 UNL     1     130.018 141.393 124.003  0.00  0.00    -0.545 C 
ATOM     16  C14 UNL     1     130.297 147.502 125.081  0.00  0.00    +0.057 C 
ATOM     17  C15 UNL     1     131.099 143.411 128.377  0.00  0.00    -0.058 A 
ATOM     18  C16 UNL     1     132.606 141.605 127.704  0.00  0.00    +0.912 A 
ATOM     19  C17 UNL     1     131.915 142.308 128.713  0.00  0.00    -0.558 A 
ENDROOT
BRANCH  12  20
ATOM     20  O2  UNL     1     131.798 139.953 123.291  0.00  0.00    -1.004 OA
ATOM     21  H1  UNL     1     131.148 139.428 123.826  0.00  0.00    +0.647 HD
ENDBRANCH  12  20
BRANCH  18  22
ATOM     22  O3  UNL     1     133.327 140.449 127.986  0.00  0.00    -1.068 OA
ATOM     23  H2  UNL     1     133.533 140.177 128.940  0.00  0.00    +0.674 HD
ENDBRANCH  18  22
TORSDOF 2
ENDMDL
MODEL 7
REMARK VINA RESULT:    -6.436      2.995      5.366
REMARK INTER + INTRA:          -6.812
REMARK INTER:                  -6.812
REMARK INTRA:                   0.000
REMARK UNBOUND:                 0.000
REMARK  Name = Output/Trash/MorphineSDF_ligand_intermediary.pdb
REMARK  3 active torsions:
REMARK  status: ('A' for Active; 'I' for Inactive)
REMARK    1  A    between atoms: O2_2  and  C10_14
REMARK    2  A    between atoms: O3_3  and  C16_20
REMARK    3  A    between atoms: N1_4  and  C14_18
REMARK                            x       y       z     vdW  Elec       q    Type
REMARK                         _______ _______ _______ _____ _____    ______ ____
ROOT
ATOM      1  O1  UNL     1     120.147 151.022 143.452  0.00  0.00    -0.449 OA
ATOM      2  N1  UNL     1     121.074 153.234 138.780  0.00  0.00    -0.644 NA
ATOM      3  C1  UNL     1     120.330 151.813 141.205  0.00  0.00    +0.651 C 
ATOM      4  C2  UNL     1     119.285 152.403 140.233  0.00  0.00    -0.615 C 
ATOM      5  C3  UNL     1     119.909 153.673 139.592  0.00  0.00    +0.961 C 
ATOM      6  C4  UNL     1     119.810 150.635 142.111  0.00  0.00    +0.075 C 
ATOM      7  C5  UNL     1     121.602 151.424 140.414  0.00  0.00    -0.509 C 
ATOM      8  C6  UNL     1     120.654 152.848 142.224  0.00  0.00    -0.625 A 
ATOM      9  C7  UNL     1     120.274 154.774 140.657  0.00  0.00    -0.649 C 
ATOM     10  C8  UNL     1     122.145 152.602 139.580  0.00  0.00    +0.547 C 
ATOM     11  C9  UNL     1     120.694 154.223 142.002  0.00  0.00    +0.652 A 
ATOM     12  C10 UNL     1     118.281 150.406 141.978  0.00  0.00    +0.771 C 
ATOM     13  C11 UNL     1     117.980 152.645 140.957  0.00  0.00    +0.326 C 
ATOM     14  C12 UNL     1     120.575 152.333 143.482  0.00  0.00    +0.450 A 
ATOM     15  C13 UNL     1     117.528 151.712 141.809  0.00  0.00    -0.545 C 
ATOM     16  C14 UNL     1     121.608 154.287 137.901  0.00  0.00    +0.057 C 
ATOM     17  C15 UNL     1     120.910 155.063 143.112  0.00  0.00    -0.058 A 
ATOM     18  C16 UNL     1     120.784 153.130 144.606  0.00  0.00    +0.912 A 
ATOM     19  C17 UNL     1     120.995 154.510 144.410  0.00  0.00    -0.558 A 
ENDROOT
BRANCH  12  20
ATOM     20  O2  UNL     1     117.803 149.709 143.098  0.00  0.00    -1.004 OA
ATOM     21  H1  UNL     1     118.308 150.047 143.883  0.00  0.00    +0.647 HD
ENDBRANCH  12  20
BRANCH  18  22
ATOM     22  O3  UNL     1     120.749 152.574 145.882  0.00  0.00    -1.068 OA
ATOM     23  H2  UNL     1     119.958 152.719 146.498  0.00  0.00    +0.674 HD
ENDBRANCH  18  22
TORSDOF 2
ENDMDL
MODEL 8
REMARK VINA RESULT:    -6.397      3.118      5.262
REMARK INTER + INTRA:          -6.771
REMARK INTER:                  -6.771
REMARK INTRA:                   0.000
REMARK UNBOUND:                 0.000
REMARK  Name = Output/Trash/MorphineSDF_ligand_intermediary.pdb
REMARK  3 active torsions:
REMARK  status: ('A' for Active; 'I' for Inactive)
REMARK    1  A    between atoms: O2_2  and  C10_14
REMARK    2  A    between atoms: O3_3  and  C16_20
REMARK    3  A    between atoms: N1_4  and  C14_18
REMARK                            x       y       z     vdW  Elec       q    Type
REMARK                         _______ _______ _______ _____ _____    ______ ____
ROOT
ATOM      1  O1  UNL     1     121.950 155.021 142.778  0.00  0.00    -0.449 OA
ATOM      2  N1  UNL     1     119.387 151.777 139.540  0.00  0.00    -0.644 NA
ATOM      3  C1  UNL     1     120.500 153.642 141.474  0.00  0.00    +0.651 C 
ATOM      4  C2  UNL     1     119.258 153.974 140.619  0.00  0.00    -0.615 C 
ATOM      5  C3  UNL     1     119.416 153.237 139.261  0.00  0.00    +0.961 C 
ATOM      6  C4  UNL     1     120.629 154.460 142.812  0.00  0.00    +0.075 C 
ATOM      7  C5  UNL     1     120.562 152.114 141.715  0.00  0.00    -0.509 C 
ATOM      8  C6  UNL     1     121.709 154.096 140.733  0.00  0.00    -0.625 A 
ATOM      9  C7  UNL     1     120.698 153.692 138.469  0.00  0.00    -0.649 C 
ATOM     10  C8  UNL     1     120.503 151.319 140.395  0.00  0.00    +0.547 C 
ATOM     11  C9  UNL     1     121.866 154.085 139.349  0.00  0.00    +0.652 A 
ATOM     12  C10 UNL     1     119.564 155.583 142.933  0.00  0.00    +0.771 C 
ATOM     13  C11 UNL     1     119.092 155.471 140.502  0.00  0.00    +0.326 C 
ATOM     14  C12 UNL     1     122.518 154.841 141.534  0.00  0.00    +0.450 A 
ATOM     15  C13 UNL     1     119.273 156.232 141.594  0.00  0.00    -0.545 C 
ATOM     16  C14 UNL     1     119.260 150.949 138.330  0.00  0.00    +0.057 C 
ATOM     17  C15 UNL     1     123.037 154.656 138.815  0.00  0.00    -0.058 A 
ATOM     18  C16 UNL     1     123.687 155.422 141.045  0.00  0.00    +0.912 A 
ATOM     19  C17 UNL     1     123.967 155.290 139.670  0.00  0.00    -0.558 A 
ENDROOT
BRANCH  12  20
ATOM     20  O2  UNL     1     119.990 156.547 143.860  0.00  0.00    -1.004 OA
ATOM     21  H1  UNL     1     120.379 156.053 144.628  0.00  0.00    +0.647 HD
ENDBRANCH  12  20
BRANCH  18  22
ATOM     22  O3  UNL     1     124.528 156.138 141.892  0.00  0.00    -1.068 OA
ATOM     23  H2  UNL     1     124.996 155.691 142.671  0.00  0.00    +0.674 HD
ENDBRANCH  18  22
TORSDOF 2
ENDMDL
MODEL 9
REMARK VINA RESULT:    -6.107     18.523     20.292
REMARK INTER + INTRA:          -6.464
REMARK INTER:                  -6.464
REMARK INTRA:                   0.000
REMARK UNBOUND:                 0.000
REMARK  Name = Output/Trash/MorphineSDF_ligand_intermediary.pdb
REMARK  3 active torsions:
REMARK  status: ('A' for Active; 'I' for Inactive)
REMARK    1  A    between atoms: O2_2  and  C10_14
REMARK    2  A    between atoms: O3_3  and  C16_20
REMARK    3  A    between atoms: N1_4  and  C14_18
REMARK                            x       y       z     vdW  Elec       q    Type
REMARK                         _______ _______ _______ _____ _____    ______ ____
ROOT
ATOM      1  O1  UNL     1     129.730 142.679 125.465  0.00  0.00    -0.449 OA
ATOM      2  N1  UNL     1     131.027 147.435 127.275  0.00  0.00    -0.644 NA
ATOM      3  C1  UNL     1     130.243 144.718 126.600  0.00  0.00    +0.651 C 
ATOM      4  C2  UNL     1     131.228 145.039 127.745  0.00  0.00    -0.615 C 
ATOM      5  C3  UNL     1     132.008 146.321 127.343  0.00  0.00    +0.961 C 
ATOM      6  C4  UNL     1     129.503 143.334 126.722  0.00  0.00    +0.075 C 
ATOM      7  C5  UNL     1     129.254 145.896 126.429  0.00  0.00    -0.509 C 
ATOM      8  C6  UNL     1     131.030 144.522 125.351  0.00  0.00    -0.625 A 
ATOM      9  C7  UNL     1     132.834 146.137 126.016  0.00  0.00    -0.649 C 
ATOM     10  C8  UNL     1     129.987 147.241 126.242  0.00  0.00    +0.547 C 
ATOM     11  C9  UNL     1     132.202 145.195 125.015  0.00  0.00    +0.652 A 
ATOM     12  C10 UNL     1     130.041 142.468 127.892  0.00  0.00    +0.771 C 
ATOM     13  C11 UNL     1     132.101 143.839 128.031  0.00  0.00    +0.326 C 
ATOM     14  C12 UNL     1     130.668 143.369 124.725  0.00  0.00    +0.450 A 
ATOM     15  C13 UNL     1     131.540 142.620 128.064  0.00  0.00    -0.545 C 
ATOM     16  C14 UNL     1     131.652 148.763 127.166  0.00  0.00    +0.057 C 
ATOM     17  C15 UNL     1     132.873 144.801 123.841  0.00  0.00    -0.058 A 
ATOM     18  C16 UNL     1     131.306 142.944 123.561  0.00  0.00    +0.912 A 
ATOM     19  C17 UNL     1     132.401 143.699 123.093  0.00  0.00    -0.558 A 
ENDROOT
BRANCH  12  20
ATOM     20  O2  UNL     1     129.708 141.121 127.682  0.00  0.00    -1.004 OA
ATOM     21  H1  UNL     1     129.103 141.095 126.895  0.00  0.00    +0.647 HD
ENDBRANCH  12  20
BRANCH  18  22
ATOM     22  O3  UNL     1     130.888 141.788 122.907  0.00  0.00    -1.068 OA
ATOM     23  H2  UNL     1     130.513 141.822 121.967  0.00  0.00    +0.674 HD
ENDBRANCH  18  22
TORSDOF 2
ENDMDL
