MODEL 1
REMARK VINA RESULT:    -7.302      0.000      0.000
REMARK INTER + INTRA:         -11.088
REMARK INTER:                 -10.290
REMARK INTRA:                  -0.798
REMARK UNBOUND:                -0.798
REMARK  Name = Output/Trash/MethadoneMOL_ligand_intermediary.pdb
REMARK  11 active torsions:
REMARK  status: ('A' for Active; 'I' for Inactive)
REMARK    1  A    between atoms: C1_1  and  C2_2
REMARK    2  A    between atoms: C2_2  and  C3_3
REMARK    3  A    between atoms: C3_3  and  C4_4
REMARK    4  A    between atoms: C4_4  and  C5_5
REMARK    5  A    between atoms: C4_4  and  C6_7
REMARK    6  A    between atoms: C4_4  and  C7_8
REMARK    7  A    between atoms: C5_5  and  C18_19
REMARK    8  A    between atoms: C18_19  and  N1_20
REMARK    9  A    between atoms: C18_19  and  C19_21
REMARK   10  A    between atoms: N1_20  and  C20_22
REMARK   11  A    between atoms: N1_20  and  C21_23
REMARK                            x       y       z     vdW  Elec       q    Type
REMARK                         _______ _______ _______ _____ _____    ______ ____
ROOT
ATOM      1  C4  UNL     1     120.569 118.419  93.272  0.00  0.00    -0.539 C 
ENDROOT
BRANCH   1   2
ATOM      2  C6  UNL     1     119.349 117.701  92.638  0.00  0.00    +0.441 A 
ATOM      3  C8  UNL     1     119.514 116.535  91.849  0.00  0.00    -0.276 A 
ATOM      4  C9  UNL     1     118.052 118.267  92.694  0.00  0.00    -0.238 A 
ATOM      5  C10 UNL     1     118.425 115.925  91.223  0.00  0.00    +0.146 A 
ATOM      6  C11 UNL     1     116.968 117.651  92.064  0.00  0.00    +0.113 A 
ATOM      7  C12 UNL     1     117.152 116.477  91.337  0.00  0.00    -0.132 A 
ENDBRANCH   1   2
BRANCH   1   8
ATOM      8  C7  UNL     1     120.108 119.462  94.316  0.00  0.00    +0.427 A 
ATOM      9  C13 UNL     1     119.644 120.725  93.879  0.00  0.00    -0.137 A 
ATOM     10  C14 UNL     1     120.252 119.256  95.708  0.00  0.00    -0.335 A 
ATOM     11  C15 UNL     1     119.282 121.714  94.795  0.00  0.00    +0.084 A 
ATOM     12  C16 UNL     1     119.884 120.250  96.619  0.00  0.00    +0.161 A 
ATOM     13  C17 UNL     1     119.395 121.475  96.164  0.00  0.00    -0.125 A 
ENDBRANCH   1   8
BRANCH   1  14
ATOM     14  C3  UNL     1     121.428 117.306  93.897  0.00  0.00    +1.175 C 
ATOM     15  O1  UNL     1     122.648 117.347  93.821  0.00  0.00    -0.583 OA
BRANCH  14  17
ATOM     16  C1  UNL     1     121.517 115.815  95.907  0.00  0.00    +0.055 C 
ATOM     17  C2  UNL     1     120.805 116.116  94.591  0.00  0.00    -0.331 C 
ENDBRANCH  14  17
ENDBRANCH   1  14
BRANCH   1  18
ATOM     18  C5  UNL     1     121.382 119.195  92.165  0.00  0.00    -0.300 C 
BRANCH  18  19
ATOM     19  C18 UNL     1     121.278 118.627  90.716  0.00  0.00    +1.160 C 
ATOM     20  C19 UNL     1     120.528 119.615  89.795  0.00  0.00    -0.472 C 
BRANCH  19  21
ATOM     21  N1  UNL     1     122.617 118.240  90.187  0.00  0.00    -0.430 NA
ATOM     22  C20 UNL     1     122.938 116.804  90.301  0.00  0.00    +0.081 C 
ATOM     23  C21 UNL     1     123.700 119.049  90.772  0.00  0.00    +0.054 C 
ENDBRANCH  19  21
ENDBRANCH  18  19
ENDBRANCH   1  18
TORSDOF 7
ENDMDL
MODEL 2
REMARK VINA RESULT:    -7.010      1.309      1.540
REMARK INTER + INTRA:         -10.677
REMARK INTER:                 -10.372
REMARK INTRA:                  -0.305
REMARK UNBOUND:                -0.798
REMARK  Name = Output/Trash/MethadoneMOL_ligand_intermediary.pdb
REMARK  11 active torsions:
REMARK  status: ('A' for Active; 'I' for Inactive)
REMARK    1  A    between atoms: C1_1  and  C2_2
REMARK    2  A    between atoms: C2_2  and  C3_3
REMARK    3  A    between atoms: C3_3  and  C4_4
REMARK    4  A    between atoms: C4_4  and  C5_5
REMARK    5  A    between atoms: C4_4  and  C6_7
REMARK    6  A    between atoms: C4_4  and  C7_8
REMARK    7  A    between atoms: C5_5  and  C18_19
REMARK    8  A    between atoms: C18_19  and  N1_20
REMARK    9  A    between atoms: C18_19  and  C19_21
REMARK   10  A    between atoms: N1_20  and  C20_22
REMARK   11  A    between atoms: N1_20  and  C21_23
REMARK                            x       y       z     vdW  Elec       q    Type
REMARK                         _______ _______ _______ _____ _____    ______ ____
ROOT
ATOM      1  C4  UNL     1     120.142 117.601  92.737  0.00  0.00    -0.539 C 
ENDROOT
BRANCH   1   2
ATOM      2  C6  UNL     1     118.810 117.197  92.052  0.00  0.00    +0.441 A 
ATOM      3  C8  UNL     1     118.720 116.023  91.261  0.00  0.00    -0.276 A 
ATOM      4  C9  UNL     1     117.687 118.059  92.062  0.00  0.00    -0.238 A 
ATOM      5  C10 UNL     1     117.541 115.693  90.590  0.00  0.00    +0.146 A 
ATOM      6  C11 UNL     1     116.511 117.722  91.387  0.00  0.00    +0.113 A 
ATOM      7  C12 UNL     1     116.435 116.536  90.659  0.00  0.00    -0.132 A 
ENDBRANCH   1   2
BRANCH   1   8
ATOM      8  C7  UNL     1     119.970 118.914  93.534  0.00  0.00    +0.427 A 
ATOM      9  C13 UNL     1     120.209 120.153  92.893  0.00  0.00    -0.137 A 
ATOM     10  C14 UNL     1     119.708 118.929  94.924  0.00  0.00    -0.335 A 
ATOM     11  C15 UNL     1     120.127 121.354  93.600  0.00  0.00    +0.084 A 
ATOM     12  C16 UNL     1     119.625 120.137  95.623  0.00  0.00    +0.161 A 
ATOM     13  C17 UNL     1     119.829 121.347  94.961  0.00  0.00    -0.125 A 
ENDBRANCH   1   8
BRANCH   1  14
ATOM     14  C3  UNL     1     120.521 116.414  93.640  0.00  0.00    +1.175 C 
ATOM     15  O1  UNL     1     119.774 115.451  93.745  0.00  0.00    -0.583 OA
BRANCH  14  17
ATOM     16  C1  UNL     1     121.553 115.865  95.854  0.00  0.00    +0.055 C 
ATOM     17  C2  UNL     1     121.799 116.406  94.449  0.00  0.00    -0.331 C 
ENDBRANCH  14  17
ENDBRANCH   1  14
BRANCH   1  18
ATOM     18  C5  UNL     1     121.258 117.856  91.652  0.00  0.00    -0.300 C 
BRANCH  18  19
ATOM     19  C18 UNL     1     120.762 118.002  90.181  0.00  0.00    +1.160 C 
ATOM     20  C19 UNL     1     120.703 119.491  89.771  0.00  0.00    -0.472 C 
BRANCH  19  21
ATOM     21  N1  UNL     1     121.578 117.174  89.248  0.00  0.00    -0.430 NA
ATOM     22  C20 UNL     1     120.798 116.384  88.275  0.00  0.00    +0.081 C 
ATOM     23  C21 UNL     1     122.526 116.302  89.964  0.00  0.00    +0.054 C 
ENDBRANCH  19  21
ENDBRANCH  18  19
ENDBRANCH   1  18
TORSDOF 7
ENDMDL
MODEL 3
REMARK VINA RESULT:    -6.982      1.406      1.926
REMARK INTER + INTRA:         -10.637
REMARK INTER:                  -9.969
REMARK INTRA:                  -0.669
REMARK UNBOUND:                -0.798
REMARK  Name = Output/Trash/MethadoneMOL_ligand_intermediary.pdb
REMARK  11 active torsions:
REMARK  status: ('A' for Active; 'I' for Inactive)
REMARK    1  A    between atoms: C1_1  and  C2_2
REMARK    2  A    between atoms: C2_2  and  C3_3
REMARK    3  A    between atoms: C3_3  and  C4_4
REMARK    4  A    between atoms: C4_4  and  C5_5
REMARK    5  A    between atoms: C4_4  and  C6_7
REMARK    6  A    between atoms: C4_4  and  C7_8
REMARK    7  A    between atoms: C5_5  and  C18_19
REMARK    8  A    between atoms: C18_19  and  N1_20
REMARK    9  A    between atoms: C18_19  and  C19_21
REMARK   10  A    between atoms: N1_20  and  C20_22
REMARK   11  A    between atoms: N1_20  and  C21_23
REMARK                            x       y       z     vdW  Elec       q    Type
REMARK                         _______ _______ _______ _____ _____    ______ ____
ROOT
ATOM      1  C4  UNL     1     120.048 117.535  92.316  0.00  0.00    -0.539 C 
ENDROOT
BRANCH   1   2
ATOM      2  C6  UNL     1     118.698 117.059  91.719  0.00  0.00    +0.441 A 
ATOM      3  C8  UNL     1     118.599 115.829  91.020  0.00  0.00    -0.276 A 
ATOM      4  C9  UNL     1     117.560 117.901  91.713  0.00  0.00    -0.238 A 
ATOM      5  C10 UNL     1     117.401 115.430  90.424  0.00  0.00    +0.146 A 
ATOM      6  C11 UNL     1     116.364 117.495  91.114  0.00  0.00    +0.113 A 
ATOM      7  C12 UNL     1     116.282 116.257  90.478  0.00  0.00    -0.132 A 
ENDBRANCH   1   2
BRANCH   1   8
ATOM      8  C7  UNL     1     119.883 118.900  93.021  0.00  0.00    +0.427 A 
ATOM      9  C13 UNL     1     120.460 120.055  92.444  0.00  0.00    -0.137 A 
ATOM     10  C14 UNL     1     119.286 119.027  94.297  0.00  0.00    -0.335 A 
ATOM     11  C15 UNL     1     120.387 121.293  93.086  0.00  0.00    +0.084 A 
ATOM     12  C16 UNL     1     119.214 120.271  94.933  0.00  0.00    +0.161 A 
ATOM     13  C17 UNL     1     119.758 121.402  94.326  0.00  0.00    -0.125 A 
ENDBRANCH   1   8
BRANCH   1  14
ATOM     14  C3  UNL     1     120.487 116.424  93.287  0.00  0.00    +1.175 C 
ATOM     15  O1  UNL     1     119.849 115.384  93.369  0.00  0.00    -0.583 OA
BRANCH  14  17
ATOM     16  C1  UNL     1     121.420 115.994  95.570  0.00  0.00    +0.055 C 
ATOM     17  C2  UNL     1     121.689 116.585  94.190  0.00  0.00    -0.331 C 
ENDBRANCH  14  17
ENDBRANCH   1  14
BRANCH   1  18
ATOM     18  C5  UNL     1     121.115 117.727  91.170  0.00  0.00    -0.300 C 
BRANCH  18  19
ATOM     19  C18 UNL     1     122.056 116.513  90.900  0.00  0.00    +1.160 C 
ATOM     20  C19 UNL     1     121.837 115.961  89.473  0.00  0.00    -0.472 C 
BRANCH  19  21
ATOM     21  N1  UNL     1     123.479 116.857  91.180  0.00  0.00    -0.430 NA
ATOM     22  C20 UNL     1     123.714 118.261  91.569  0.00  0.00    +0.081 C 
ATOM     23  C21 UNL     1     124.370 116.484  90.067  0.00  0.00    +0.054 C 
ENDBRANCH  19  21
ENDBRANCH  18  19
ENDBRANCH   1  18
TORSDOF 7
ENDMDL
MODEL 4
REMARK VINA RESULT:    -6.946      1.977      5.380
REMARK INTER + INTRA:         -10.586
REMARK INTER:                  -9.743
REMARK INTRA:                  -0.843
REMARK UNBOUND:                -0.798
REMARK  Name = Output/Trash/MethadoneMOL_ligand_intermediary.pdb
REMARK  11 active torsions:
REMARK  status: ('A' for Active; 'I' for Inactive)
REMARK    1  A    between atoms: C1_1  and  C2_2
REMARK    2  A    between atoms: C2_2  and  C3_3
REMARK    3  A    between atoms: C3_3  and  C4_4
REMARK    4  A    between atoms: C4_4  and  C5_5
REMARK    5  A    between atoms: C4_4  and  C6_7
REMARK    6  A    between atoms: C4_4  and  C7_8
REMARK    7  A    between atoms: C5_5  and  C18_19
REMARK    8  A    between atoms: C18_19  and  N1_20
REMARK    9  A    between atoms: C18_19  and  C19_21
REMARK   10  A    between atoms: N1_20  and  C20_22
REMARK   11  A    between atoms: N1_20  and  C21_23
REMARK                            x       y       z     vdW  Elec       q    Type
REMARK                         _______ _______ _______ _____ _____    ______ ____
ROOT
ATOM      1  C4  UNL     1     119.918 116.887  91.020  0.00  0.00    -0.539 C 
ENDROOT
BRANCH   1   2
ATOM      2  C6  UNL     1     120.903 116.853  89.823  0.00  0.00    +0.441 A 
ATOM      3  C8  UNL     1     121.106 117.996  89.008  0.00  0.00    -0.276 A 
ATOM      4  C9  UNL     1     121.512 115.645  89.406  0.00  0.00    -0.238 A 
ATOM      5  C10 UNL     1     121.941 117.948  87.890  0.00  0.00    +0.146 A 
ATOM      6  C11 UNL     1     122.346 115.605  88.286  0.00  0.00    +0.113 A 
ATOM      7  C12 UNL     1     122.568 116.758  87.534  0.00  0.00    -0.132 A 
ENDBRANCH   1   2
BRANCH   1   8
ATOM      8  C7  UNL     1     118.638 116.084  90.699  0.00  0.00    +0.427 A 
ATOM      9  C13 UNL     1     118.746 114.838  90.039  0.00  0.00    -0.137 A 
ATOM     10  C14 UNL     1     117.341 116.603  90.923  0.00  0.00    -0.335 A 
ATOM     11  C15 UNL     1     117.607 114.116  89.675  0.00  0.00    +0.084 A 
ATOM     12  C16 UNL     1     116.206 115.873  90.558  0.00  0.00    +0.161 A 
ATOM     13  C17 UNL     1     116.338 114.629  89.940  0.00  0.00    -0.125 A 
ENDBRANCH   1   8
BRANCH   1  14
ATOM     14  C3  UNL     1     120.694 116.300  92.212  0.00  0.00    +1.175 C 
ATOM     15  O1  UNL     1     121.910 116.415  92.278  0.00  0.00    -0.583 OA
BRANCH  14  17
ATOM     16  C1  UNL     1     120.771 115.648  94.629  0.00  0.00    +0.055 C 
ATOM     17  C2  UNL     1     119.998 115.539  93.318  0.00  0.00    -0.331 C 
ENDBRANCH  14  17
ENDBRANCH   1  14
BRANCH   1  18
ATOM     18  C5  UNL     1     119.475 118.371  91.320  0.00  0.00    -0.300 C 
BRANCH  18  19
ATOM     19  C18 UNL     1     120.303 119.127  92.404  0.00  0.00    +1.160 C 
ATOM     20  C19 UNL     1     120.802 120.485  91.861  0.00  0.00    -0.472 C 
BRANCH  19  21
ATOM     21  N1  UNL     1     119.541 119.255  93.679  0.00  0.00    -0.430 NA
ATOM     22  C20 UNL     1     118.084 119.053  93.554  0.00  0.00    +0.081 C 
ATOM     23  C21 UNL     1     119.818 120.527  94.367  0.00  0.00    +0.054 C 
ENDBRANCH  19  21
ENDBRANCH  18  19
ENDBRANCH   1  18
TORSDOF 7
ENDMDL
MODEL 5
REMARK VINA RESULT:    -6.871      1.846      5.102
REMARK INTER + INTRA:         -10.482
REMARK INTER:                  -9.873
REMARK INTRA:                  -0.609
REMARK UNBOUND:                -0.798
REMARK  Name = Output/Trash/MethadoneMOL_ligand_intermediary.pdb
REMARK  11 active torsions:
REMARK  status: ('A' for Active; 'I' for Inactive)
REMARK    1  A    between atoms: C1_1  and  C2_2
REMARK    2  A    between atoms: C2_2  and  C3_3
REMARK    3  A    between atoms: C3_3  and  C4_4
REMARK    4  A    between atoms: C4_4  and  C5_5
REMARK    5  A    between atoms: C4_4  and  C6_7
REMARK    6  A    between atoms: C4_4  and  C7_8
REMARK    7  A    between atoms: C5_5  and  C18_19
REMARK    8  A    between atoms: C18_19  and  N1_20
REMARK    9  A    between atoms: C18_19  and  C19_21
REMARK   10  A    between atoms: N1_20  and  C20_22
REMARK   11  A    between atoms: N1_20  and  C21_23
REMARK                            x       y       z     vdW  Elec       q    Type
REMARK                         _______ _______ _______ _____ _____    ______ ____
ROOT
ATOM      1  C4  UNL     1     120.212 118.009  91.431  0.00  0.00    -0.539 C 
ENDROOT
BRANCH   1   2
ATOM      2  C6  UNL     1     119.992 119.104  92.507  0.00  0.00    +0.441 A 
ATOM      3  C8  UNL     1     119.019 118.945  93.526  0.00  0.00    -0.276 A 
ATOM      4  C9  UNL     1     120.638 120.361  92.420  0.00  0.00    -0.238 A 
ATOM      5  C10 UNL     1     118.772 119.958  94.456  0.00  0.00    +0.146 A 
ATOM      6  C11 UNL     1     120.386 121.370  93.353  0.00  0.00    +0.113 A 
ATOM      7  C12 UNL     1     119.461 121.165  94.375  0.00  0.00    -0.132 A 
ENDBRANCH   1   2
BRANCH   1   8
ATOM      8  C7  UNL     1     118.905 117.226  91.171  0.00  0.00    +0.427 A 
ATOM      9  C13 UNL     1     118.973 115.911  90.657  0.00  0.00    -0.137 A 
ATOM     10  C14 UNL     1     117.627 117.819  91.306  0.00  0.00    -0.335 A 
ATOM     11  C15 UNL     1     117.812 115.199  90.349  0.00  0.00    +0.084 A 
ATOM     12  C16 UNL     1     116.469 117.098  90.998  0.00  0.00    +0.161 A 
ATOM     13  C17 UNL     1     116.561 115.789  90.525  0.00  0.00    -0.125 A 
ENDBRANCH   1   8
BRANCH   1  14
ATOM     14  C3  UNL     1     120.709 118.751  90.178  0.00  0.00    +1.175 C 
ATOM     15  O1  UNL     1     120.157 119.778  89.806  0.00  0.00    -0.583 OA
BRANCH  14  17
ATOM     16  C1  UNL     1     121.355 117.497  88.110  0.00  0.00    +0.055 C 
ATOM     17  C2  UNL     1     121.860 118.230  89.349  0.00  0.00    -0.331 C 
ENDBRANCH  14  17
ENDBRANCH   1  14
BRANCH   1  18
ATOM     18  C5  UNL     1     121.289 116.968  91.926  0.00  0.00    -0.300 C 
BRANCH  18  19
ATOM     19  C18 UNL     1     122.123 117.386  93.176  0.00  0.00    +1.160 C 
ATOM     20  C19 UNL     1     121.824 116.451  94.369  0.00  0.00    -0.472 C 
BRANCH  19  21
ATOM     21  N1  UNL     1     123.575 117.475  92.855  0.00  0.00    -0.430 NA
ATOM     22  C20 UNL     1     124.062 118.833  92.546  0.00  0.00    +0.081 C 
ATOM     23  C21 UNL     1     123.965 116.541  91.784  0.00  0.00    +0.054 C 
ENDBRANCH  19  21
ENDBRANCH  18  19
ENDBRANCH   1  18
TORSDOF 7
ENDMDL
MODEL 6
REMARK VINA RESULT:    -6.653      1.445      4.440
REMARK INTER + INTRA:         -10.174
REMARK INTER:                  -9.916
REMARK INTRA:                  -0.258
REMARK UNBOUND:                -0.798
REMARK  Name = Output/Trash/MethadoneMOL_ligand_intermediary.pdb
REMARK  11 active torsions:
REMARK  status: ('A' for Active; 'I' for Inactive)
REMARK    1  A    between atoms: C1_1  and  C2_2
REMARK    2  A    between atoms: C2_2  and  C3_3
REMARK    3  A    between atoms: C3_3  and  C4_4
REMARK    4  A    between atoms: C4_4  and  C5_5
REMARK    5  A    between atoms: C4_4  and  C6_7
REMARK    6  A    between atoms: C4_4  and  C7_8
REMARK    7  A    between atoms: C5_5  and  C18_19
REMARK    8  A    between atoms: C18_19  and  N1_20
REMARK    9  A    between atoms: C18_19  and  C19_21
REMARK   10  A    between atoms: N1_20  and  C20_22
REMARK   11  A    between atoms: N1_20  and  C21_23
REMARK                            x       y       z     vdW  Elec       q    Type
REMARK                         _______ _______ _______ _____ _____    ______ ____
ROOT
ATOM      1  C4  UNL     1     121.056 118.880  92.942  0.00  0.00    -0.539 C 
ENDROOT
BRANCH   1   2
ATOM      2  C6  UNL     1     120.463 119.904  93.946  0.00  0.00    +0.441 A 
ATOM      3  C8  UNL     1     120.568 119.703  95.345  0.00  0.00    -0.276 A 
ATOM      4  C9  UNL     1     119.666 120.988  93.505  0.00  0.00    -0.238 A 
ATOM      5  C10 UNL     1     119.977 120.588  96.249  0.00  0.00    +0.146 A 
ATOM      6  C11 UNL     1     119.079 121.870  94.416  0.00  0.00    +0.113 A 
ATOM      7  C12 UNL     1     119.241 121.675  95.786  0.00  0.00    -0.132 A 
ENDBRANCH   1   2
BRANCH   1   8
ATOM      8  C7  UNL     1     122.231 119.503  92.155  0.00  0.00    +0.427 A 
ATOM      9  C13 UNL     1     122.291 119.341  90.751  0.00  0.00    -0.137 A 
ATOM     10  C14 UNL     1     123.328 120.125  92.796  0.00  0.00    -0.335 A 
ATOM     11  C15 UNL     1     123.371 119.834  90.017  0.00  0.00    +0.084 A 
ATOM     12  C16 UNL     1     124.404 120.619  92.053  0.00  0.00    +0.161 A 
ATOM     13  C17 UNL     1     124.424 120.478  90.666  0.00  0.00    -0.125 A 
ENDBRANCH   1   8
BRANCH   1  14
ATOM     14  C3  UNL     1     121.494 117.673  93.790  0.00  0.00    +1.175 C 
ATOM     15  O1  UNL     1     122.384 116.931  93.400  0.00  0.00    -0.583 OA
BRANCH  14  17
ATOM     16  C1  UNL     1     121.442 116.093  95.732  0.00  0.00    +0.055 C 
ATOM     17  C2  UNL     1     120.827 117.341  95.106  0.00  0.00    -0.331 C 
ENDBRANCH  14  17
ENDBRANCH   1  14
BRANCH   1  18
ATOM     18  C5  UNL     1     119.962 118.453  91.889  0.00  0.00    -0.300 C 
BRANCH  18  19
ATOM     19  C18 UNL     1     118.926 117.392  92.370  0.00  0.00    +1.160 C 
ATOM     20  C19 UNL     1     117.512 118.009  92.454  0.00  0.00    -0.472 C 
BRANCH  19  21
ATOM     21  N1  UNL     1     118.976 116.163  91.526  0.00  0.00    -0.430 NA
ATOM     22  C20 UNL     1     119.554 114.978  92.189  0.00  0.00    +0.081 C 
ATOM     23  C21 UNL     1     119.648 116.401  90.238  0.00  0.00    +0.054 C 
ENDBRANCH  19  21
ENDBRANCH  18  19
ENDBRANCH   1  18
TORSDOF 7
ENDMDL
MODEL 7
REMARK VINA RESULT:    -6.602      1.841      4.994
REMARK INTER + INTRA:         -10.102
REMARK INTER:                  -9.487
REMARK INTRA:                  -0.616
REMARK UNBOUND:                -0.798
REMARK  Name = Output/Trash/MethadoneMOL_ligand_intermediary.pdb
REMARK  11 active torsions:
REMARK  status: ('A' for Active; 'I' for Inactive)
REMARK    1  A    between atoms: C1_1  and  C2_2
REMARK    2  A    between atoms: C2_2  and  C3_3
REMARK    3  A    between atoms: C3_3  and  C4_4
REMARK    4  A    between atoms: C4_4  and  C5_5
REMARK    5  A    between atoms: C4_4  and  C6_7
REMARK    6  A    between atoms: C4_4  and  C7_8
REMARK    7  A    between atoms: C5_5  and  C18_19
REMARK    8  A    between atoms: C18_19  and  N1_20
REMARK    9  A    between atoms: C18_19  and  C19_21
REMARK   10  A    between atoms: N1_20  and  C20_22
REMARK   11  A    between atoms: N1_20  and  C21_23
REMARK                            x       y       z     vdW  Elec       q    Type
REMARK                         _______ _______ _______ _____ _____    ______ ____
ROOT
ATOM      1  C4  UNL     1     120.187 116.785  92.059  0.00  0.00    -0.539 C 
ENDROOT
BRANCH   1   2
ATOM      2  C6  UNL     1     121.563 116.607  91.365  0.00  0.00    +0.441 A 
ATOM      3  C8  UNL     1     121.652 116.269  89.991  0.00  0.00    -0.276 A 
ATOM      4  C9  UNL     1     122.768 116.622  92.108  0.00  0.00    -0.238 A 
ATOM      5  C10 UNL     1     122.888 116.043  89.381  0.00  0.00    +0.146 A 
ATOM      6  C11 UNL     1     124.001 116.395  91.491  0.00  0.00    +0.113 A 
ATOM      7  C12 UNL     1     124.062 116.114  90.127  0.00  0.00    -0.132 A 
ENDBRANCH   1   2
BRANCH   1   8
ATOM      8  C7  UNL     1     119.072 116.083  91.251  0.00  0.00    +0.427 A 
ATOM      9  C13 UNL     1     117.778 116.652  91.213  0.00  0.00    -0.137 A 
ATOM     10  C14 UNL     1     119.256 114.817  90.648  0.00  0.00    -0.335 A 
ATOM     11  C15 UNL     1     116.731 116.011  90.547  0.00  0.00    +0.084 A 
ATOM     12  C16 UNL     1     118.203 114.183  89.981  0.00  0.00    +0.161 A 
ATOM     13  C17 UNL     1     116.945 114.781  89.926  0.00  0.00    -0.125 A 
ENDBRANCH   1   8
BRANCH   1  14
ATOM     14  C3  UNL     1     120.353 116.189  93.468  0.00  0.00    +1.175 C 
ATOM     15  O1  UNL     1     119.993 115.044  93.704  0.00  0.00    -0.583 OA
BRANCH  14  17
ATOM     16  C1  UNL     1     121.554 116.085  95.663  0.00  0.00    +0.055 C 
ATOM     17  C2  UNL     1     120.927 116.996  94.611  0.00  0.00    -0.331 C 
ENDBRANCH  14  17
ENDBRANCH   1  14
BRANCH   1  18
ATOM     18  C5  UNL     1     119.811 118.315  92.141  0.00  0.00    -0.300 C 
BRANCH  18  19
ATOM     19  C18 UNL     1     120.886 119.313  91.612  0.00  0.00    +1.160 C 
ATOM     20  C19 UNL     1     120.488 119.857  90.222  0.00  0.00    -0.472 C 
BRANCH  19  21
ATOM     21  N1  UNL     1     121.159 120.392  92.603  0.00  0.00    -0.430 NA
ATOM     22  C20 UNL     1     122.419 120.239  93.358  0.00  0.00    +0.081 C 
ATOM     23  C21 UNL     1     120.034 120.591  93.533  0.00  0.00    +0.054 C 
ENDBRANCH  19  21
ENDBRANCH  18  19
ENDBRANCH   1  18
TORSDOF 7
ENDMDL
MODEL 8
REMARK VINA RESULT:    -6.464      1.493      4.663
REMARK INTER + INTRA:          -9.908
REMARK INTER:                  -9.239
REMARK INTRA:                  -0.669
REMARK UNBOUND:                -0.798
REMARK  Name = Output/Trash/MethadoneMOL_ligand_intermediary.pdb
REMARK  11 active torsions:
REMARK  status: ('A' for Active; 'I' for Inactive)
REMARK    1  A    between atoms: C1_1  and  C2_2
REMARK    2  A    between atoms: C2_2  and  C3_3
REMARK    3  A    between atoms: C3_3  and  C4_4
REMARK    4  A    between atoms: C4_4  and  C5_5
REMARK    5  A    between atoms: C4_4  and  C6_7
REMARK    6  A    between atoms: C4_4  and  C7_8
REMARK    7  A    between atoms: C5_5  and  C18_19
REMARK    8  A    between atoms: C18_19  and  N1_20
REMARK    9  A    between atoms: C18_19  and  C19_21
REMARK   10  A    between atoms: N1_20  and  C20_22
REMARK   11  A    between atoms: N1_20  and  C21_23
REMARK                            x       y       z     vdW  Elec       q    Type
REMARK                         _______ _______ _______ _____ _____    ______ ____
ROOT
ATOM      1  C4  UNL     1     120.615 118.873  92.689  0.00  0.00    -0.539 C 
ENDROOT
BRANCH   1   2
ATOM      2  C6  UNL     1     120.228 119.821  93.854  0.00  0.00    +0.441 A 
ATOM      3  C8  UNL     1     120.358 119.413  95.206  0.00  0.00    -0.276 A 
ATOM      4  C9  UNL     1     119.588 121.061  93.611  0.00  0.00    -0.238 A 
ATOM      5  C10 UNL     1     119.947 120.239  96.254  0.00  0.00    +0.146 A 
ATOM      6  C11 UNL     1     119.179 121.882  94.665  0.00  0.00    +0.113 A 
ATOM      7  C12 UNL     1     119.367 121.475  95.985  0.00  0.00    -0.132 A 
ENDBRANCH   1   2
BRANCH   1   8
ATOM      8  C7  UNL     1     119.416 117.989  92.281  0.00  0.00    +0.427 A 
ATOM      9  C13 UNL     1     118.100 118.453  92.510  0.00  0.00    -0.137 A 
ATOM     10  C14 UNL     1     119.576 116.668  91.801  0.00  0.00    -0.335 A 
ATOM     11  C15 UNL     1     116.994 117.654  92.214  0.00  0.00    +0.084 A 
ATOM     12  C16 UNL     1     118.464 115.875  91.504  0.00  0.00    +0.161 A 
ATOM     13  C17 UNL     1     117.175 116.368  91.705  0.00  0.00    -0.125 A 
ENDBRANCH   1   8
BRANCH   1  14
ATOM     14  C3  UNL     1     121.083 119.790  91.546  0.00  0.00    +1.175 C 
ATOM     15  O1  UNL     1     121.940 120.640  91.742  0.00  0.00    -0.583 OA
BRANCH  14  17
ATOM     16  C1  UNL     1     121.285 118.751  89.276  0.00  0.00    +0.055 C 
ATOM     17  C2  UNL     1     120.484 119.703  90.160  0.00  0.00    -0.331 C 
ENDBRANCH  14  17
ENDBRANCH   1  14
BRANCH   1  18
ATOM     18  C5  UNL     1     121.778 117.905  93.137  0.00  0.00    -0.300 C 
BRANCH  18  19
ATOM     19  C18 UNL     1     123.111 118.020  92.337  0.00  0.00    +1.160 C 
ATOM     20  C19 UNL     1     124.137 118.881  93.107  0.00  0.00    -0.472 C 
BRANCH  19  21
ATOM     21  N1  UNL     1     123.639 116.676  91.966  0.00  0.00    -0.430 NA
ATOM     22  C20 UNL     1     125.063 116.457  92.289  0.00  0.00    +0.081 C 
ATOM     23  C21 UNL     1     123.385 116.349  90.553  0.00  0.00    +0.054 C 
ENDBRANCH  19  21
ENDBRANCH  18  19
ENDBRANCH   1  18
TORSDOF 7
ENDMDL
MODEL 9
REMARK VINA RESULT:    -6.430      2.131      5.250
REMARK INTER + INTRA:          -9.860
REMARK INTER:                  -9.050
REMARK INTRA:                  -0.810
REMARK UNBOUND:                -0.798
REMARK  Name = Output/Trash/MethadoneMOL_ligand_intermediary.pdb
REMARK  11 active torsions:
REMARK  status: ('A' for Active; 'I' for Inactive)
REMARK    1  A    between atoms: C1_1  and  C2_2
REMARK    2  A    between atoms: C2_2  and  C3_3
REMARK    3  A    between atoms: C3_3  and  C4_4
REMARK    4  A    between atoms: C4_4  and  C5_5
REMARK    5  A    between atoms: C4_4  and  C6_7
REMARK    6  A    between atoms: C4_4  and  C7_8
REMARK    7  A    between atoms: C5_5  and  C18_19
REMARK    8  A    between atoms: C18_19  and  N1_20
REMARK    9  A    between atoms: C18_19  and  C19_21
REMARK   10  A    between atoms: N1_20  and  C20_22
REMARK   11  A    between atoms: N1_20  and  C21_23
REMARK                            x       y       z     vdW  Elec       q    Type
REMARK                         _______ _______ _______ _____ _____    ______ ____
ROOT
ATOM      1  C4  UNL     1     120.326 116.895  91.329  0.00  0.00    -0.539 C 
ENDROOT
BRANCH   1   2
ATOM      2  C6  UNL     1     120.778 116.456  92.746  0.00  0.00    +0.441 A 
ATOM      3  C8  UNL     1     119.993 115.567  93.524  0.00  0.00    -0.276 A 
ATOM      4  C9  UNL     1     121.905 117.042  93.372  0.00  0.00    -0.238 A 
ATOM      5  C10 UNL     1     120.365 115.223  94.825  0.00  0.00    +0.146 A 
ATOM      6  C11 UNL     1     122.270 116.693  94.675  0.00  0.00    +0.113 A 
ATOM      7  C12 UNL     1     121.506 115.778  95.397  0.00  0.00    -0.132 A 
ENDBRANCH   1   2
BRANCH   1   8
ATOM      8  C7  UNL     1     119.337 115.870  90.728  0.00  0.00    +0.427 A 
ATOM      9  C13 UNL     1     117.986 116.239  90.534  0.00  0.00    -0.137 A 
ATOM     10  C14 UNL     1     119.697 114.524  90.481  0.00  0.00    -0.335 A 
ATOM     11  C15 UNL     1     117.051 115.319  90.055  0.00  0.00    +0.084 A 
ATOM     12  C16 UNL     1     118.756 113.610  89.998  0.00  0.00    +0.161 A 
ATOM     13  C17 UNL     1     117.437 114.007  89.781  0.00  0.00    -0.125 A 
ENDBRANCH   1   8
BRANCH   1  14
ATOM     14  C3  UNL     1     119.691 118.285  91.508  0.00  0.00    +1.175 C 
ATOM     15  O1  UNL     1     119.820 119.142  90.644  0.00  0.00    -0.583 OA
BRANCH  14  17
ATOM     16  C1  UNL     1     119.538 119.874  93.437  0.00  0.00    +0.055 C 
ATOM     17  C2  UNL     1     118.924 118.655  92.757  0.00  0.00    -0.331 C 
ENDBRANCH  14  17
ENDBRANCH   1  14
BRANCH   1  18
ATOM     18  C5  UNL     1     121.567 116.970  90.358  0.00  0.00    -0.300 C 
BRANCH  18  19
ATOM     19  C18 UNL     1     121.358 116.375  88.932  0.00  0.00    +1.160 C 
ATOM     20  C19 UNL     1     121.094 117.499  87.905  0.00  0.00    -0.472 C 
BRANCH  19  21
ATOM     21  N1  UNL     1     122.490 115.486  88.543  0.00  0.00    -0.430 NA
ATOM     22  C20 UNL     1     123.690 116.188  88.048  0.00  0.00    +0.081 C 
ATOM     23  C21 UNL     1     122.077 114.449  87.581  0.00  0.00    +0.054 C 
ENDBRANCH  19  21
ENDBRANCH  18  19
ENDBRANCH   1  18
TORSDOF 7
ENDMDL
