MODEL 1
REMARK VINA RESULT:    -7.025      0.000      0.000
REMARK INTER + INTRA:         -10.750
REMARK INTER:                  -9.900
REMARK INTRA:                  -0.850
REMARK UNBOUND:                -0.850
REMARK  Name = Output/Trash/MethadoneMOL_ligand_intermediary.pdb
REMARK  11 active torsions:
REMARK  status: ('A' for Active; 'I' for Inactive)
REMARK    1  A    between atoms: C1_1  and  C2_2
REMARK    2  A    between atoms: C2_2  and  C3_3
REMARK    3  A    between atoms: C3_3  and  C4_4
REMARK    4  A    between atoms: C4_4  and  C5_5
REMARK    5  A    between atoms: C4_4  and  C6_7
REMARK    6  A    between atoms: C4_4  and  C7_8
REMARK    7  A    between atoms: C5_5  and  C18_19
REMARK    8  A    between atoms: C18_19  and  N1_20
REMARK    9  A    between atoms: C18_19  and  C19_21
REMARK   10  A    between atoms: N1_20  and  C20_22
REMARK   11  A    between atoms: N1_20  and  C21_23
REMARK                            x       y       z     vdW  Elec       q    Type
REMARK                         _______ _______ _______ _____ _____    ______ ____
ROOT
ATOM      1  C4  UNL     1     119.854 152.345 140.522  0.00  0.00    -0.539 C 
ENDROOT
BRANCH   1   2
ATOM      2  C6  UNL     1     120.925 153.092 139.685  0.00  0.00    +0.441 A 
ATOM      3  C8  UNL     1     122.208 153.373 140.221  0.00  0.00    -0.276 A 
ATOM      4  C9  UNL     1     120.613 153.655 138.424  0.00  0.00    -0.238 A 
ATOM      5  C10 UNL     1     123.151 154.103 139.495  0.00  0.00    +0.146 A 
ATOM      6  C11 UNL     1     121.562 154.385 137.704  0.00  0.00    +0.113 A 
ATOM      7  C12 UNL     1     122.832 154.602 138.234  0.00  0.00    -0.132 A 
ENDBRANCH   1   2
BRANCH   1   8
ATOM      8  C7  UNL     1     118.889 151.564 139.601  0.00  0.00    +0.427 A 
ATOM      9  C13 UNL     1     117.557 151.338 140.021  0.00  0.00    -0.137 A 
ATOM     10  C14 UNL     1     119.318 150.947 138.403  0.00  0.00    -0.335 A 
ATOM     11  C15 UNL     1     116.678 150.581 139.245  0.00  0.00    +0.084 A 
ATOM     12  C16 UNL     1     118.430 150.192 137.630  0.00  0.00    +0.161 A 
ATOM     13  C17 UNL     1     117.111 150.014 138.047  0.00  0.00    -0.125 A 
ENDBRANCH   1   8
BRANCH   1  14
ATOM     14  C3  UNL     1     120.637 151.420 141.469  0.00  0.00    +1.175 C 
ATOM     15  O1  UNL     1     121.454 150.625 141.025  0.00  0.00    -0.583 OA
BRANCH  14  17
ATOM     16  C1  UNL     1     119.332 150.424 143.360  0.00  0.00    +0.055 C 
ATOM     17  C2  UNL     1     120.407 151.431 142.963  0.00  0.00    -0.331 C 
ENDBRANCH  14  17
ENDBRANCH   1  14
BRANCH   1  18
ATOM     18  C5  UNL     1     118.985 153.376 141.341  0.00  0.00    -0.300 C 
BRANCH  18  19
ATOM     19  C18 UNL     1     119.569 154.816 141.466  0.00  0.00    +1.160 C 
ATOM     20  C19 UNL     1     118.700 155.827 140.686  0.00  0.00    -0.472 C 
BRANCH  19  21
ATOM     21  N1  UNL     1     119.768 155.199 142.893  0.00  0.00    -0.430 NA
ATOM     22  C20 UNL     1     121.152 155.057 143.388  0.00  0.00    +0.081 C 
ATOM     23  C21 UNL     1     118.835 154.499 143.792  0.00  0.00    +0.054 C 
ENDBRANCH  19  21
ENDBRANCH  18  19
ENDBRANCH   1  18
TORSDOF 7
ENDMDL
MODEL 2
REMARK VINA RESULT:    -6.783      1.465      4.837
REMARK INTER + INTRA:         -10.408
REMARK INTER:                 -10.173
REMARK INTRA:                  -0.236
REMARK UNBOUND:                -0.850
REMARK  Name = Output/Trash/MethadoneMOL_ligand_intermediary.pdb
REMARK  11 active torsions:
REMARK  status: ('A' for Active; 'I' for Inactive)
REMARK    1  A    between atoms: C1_1  and  C2_2
REMARK    2  A    between atoms: C2_2  and  C3_3
REMARK    3  A    between atoms: C3_3  and  C4_4
REMARK    4  A    between atoms: C4_4  and  C5_5
REMARK    5  A    between atoms: C4_4  and  C6_7
REMARK    6  A    between atoms: C4_4  and  C7_8
REMARK    7  A    between atoms: C5_5  and  C18_19
REMARK    8  A    between atoms: C18_19  and  N1_20
REMARK    9  A    between atoms: C18_19  and  C19_21
REMARK   10  A    between atoms: N1_20  and  C20_22
REMARK   11  A    between atoms: N1_20  and  C21_23
REMARK                            x       y       z     vdW  Elec       q    Type
REMARK                         _______ _______ _______ _____ _____    ______ ____
ROOT
ATOM      1  C4  UNL     1     119.724 152.425 140.517  0.00  0.00    -0.539 C 
ENDROOT
BRANCH   1   2
ATOM      2  C6  UNL     1     118.784 151.615 139.586  0.00  0.00    +0.441 A 
ATOM      3  C8  UNL     1     117.461 151.293 139.981  0.00  0.00    -0.276 A 
ATOM      4  C9  UNL     1     119.259 151.039 138.383  0.00  0.00    -0.238 A 
ATOM      5  C10 UNL     1     116.636 150.507 139.173  0.00  0.00    +0.146 A 
ATOM      6  C11 UNL     1     118.428 150.254 137.580  0.00  0.00    +0.113 A 
ATOM      7  C12 UNL     1     117.115 149.996 137.970  0.00  0.00    -0.132 A 
ENDBRANCH   1   2
BRANCH   1   8
ATOM      8  C7  UNL     1     120.859 153.089 139.705  0.00  0.00    +0.427 A 
ATOM      9  C13 UNL     1     122.182 153.056 140.203  0.00  0.00    -0.137 A 
ATOM     10  C14 UNL     1     120.611 153.849 138.537  0.00  0.00    -0.335 A 
ATOM     11  C15 UNL     1     123.220 153.702 139.529  0.00  0.00    +0.084 A 
ATOM     12  C16 UNL     1     121.657 154.490 137.866  0.00  0.00    +0.161 A 
ATOM     13  C17 UNL     1     122.959 154.412 138.358  0.00  0.00    -0.125 A 
ENDBRANCH   1   8
BRANCH   1  14
ATOM     14  C3  UNL     1     118.824 153.458 141.218  0.00  0.00    +1.175 C 
ATOM     15  O1  UNL     1     117.652 153.200 141.456  0.00  0.00    -0.583 OA
BRANCH  14  17
ATOM     16  C1  UNL     1     118.614 155.922 140.827  0.00  0.00    +0.055 C 
ATOM     17  C2  UNL     1     119.336 154.827 141.606  0.00  0.00    -0.331 C 
ENDBRANCH  14  17
ENDBRANCH   1  14
BRANCH   1  18
ATOM     18  C5  UNL     1     120.402 151.469 141.572  0.00  0.00    -0.300 C 
BRANCH  18  19
ATOM     19  C18 UNL     1     119.738 151.424 142.982  0.00  0.00    +1.160 C 
ATOM     20  C19 UNL     1     118.937 150.116 143.166  0.00  0.00    -0.472 C 
BRANCH  19  21
ATOM     21  N1  UNL     1     120.741 151.650 144.062  0.00  0.00    -0.430 NA
ATOM     22  C20 UNL     1     121.003 150.478 144.921  0.00  0.00    +0.081 C 
ATOM     23  C21 UNL     1     120.410 152.821 144.891  0.00  0.00    +0.054 C 
ENDBRANCH  19  21
ENDBRANCH  18  19
ENDBRANCH   1  18
TORSDOF 7
ENDMDL
MODEL 3
REMARK VINA RESULT:    -6.741      1.325      4.368
REMARK INTER + INTRA:         -10.350
REMARK INTER:                  -9.630
REMARK INTRA:                  -0.720
REMARK UNBOUND:                -0.850
REMARK  Name = Output/Trash/MethadoneMOL_ligand_intermediary.pdb
REMARK  11 active torsions:
REMARK  status: ('A' for Active; 'I' for Inactive)
REMARK    1  A    between atoms: C1_1  and  C2_2
REMARK    2  A    between atoms: C2_2  and  C3_3
REMARK    3  A    between atoms: C3_3  and  C4_4
REMARK    4  A    between atoms: C4_4  and  C5_5
REMARK    5  A    between atoms: C4_4  and  C6_7
REMARK    6  A    between atoms: C4_4  and  C7_8
REMARK    7  A    between atoms: C5_5  and  C18_19
REMARK    8  A    between atoms: C18_19  and  N1_20
REMARK    9  A    between atoms: C18_19  and  C19_21
REMARK   10  A    between atoms: N1_20  and  C20_22
REMARK   11  A    between atoms: N1_20  and  C21_23
REMARK                            x       y       z     vdW  Elec       q    Type
REMARK                         _______ _______ _______ _____ _____    ______ ____
ROOT
ATOM      1  C4  UNL     1     119.147 152.042 141.024  0.00  0.00    -0.539 C 
ENDROOT
BRANCH   1   2
ATOM      2  C6  UNL     1     118.459 151.116 139.987  0.00  0.00    +0.441 A 
ATOM      3  C8  UNL     1     119.206 150.168 139.242  0.00  0.00    -0.276 A 
ATOM      4  C9  UNL     1     117.098 151.288 139.637  0.00  0.00    -0.238 A 
ATOM      5  C10 UNL     1     118.600 149.380 138.261  0.00  0.00    +0.146 A 
ATOM      6  C11 UNL     1     116.499 150.496 138.654  0.00  0.00    +0.113 A 
ATOM      7  C12 UNL     1     117.247 149.537 137.973  0.00  0.00    -0.132 A 
ENDBRANCH   1   2
BRANCH   1   8
ATOM      8  C7  UNL     1     119.498 151.258 142.309  0.00  0.00    +0.427 A 
ATOM      9  C13 UNL     1     118.591 150.293 142.805  0.00  0.00    -0.137 A 
ATOM     10  C14 UNL     1     120.638 151.557 143.091  0.00  0.00    -0.335 A 
ATOM     11  C15 UNL     1     118.846 149.614 143.998  0.00  0.00    +0.084 A 
ATOM     12  C16 UNL     1     120.888 150.870 144.283  0.00  0.00    +0.161 A 
ATOM     13  C17 UNL     1     119.996 149.897 144.733  0.00  0.00    -0.125 A 
ENDBRANCH   1   8
BRANCH   1  14
ATOM     14  C3  UNL     1     120.395 152.599 140.319  0.00  0.00    +1.175 C 
ATOM     15  O1  UNL     1     121.515 152.300 140.711  0.00  0.00    -0.583 OA
BRANCH  14  17
ATOM     16  C1  UNL     1     120.935 152.963 137.901  0.00  0.00    +0.055 C 
ATOM     17  C2  UNL     1     120.290 153.554 139.151  0.00  0.00    -0.331 C 
ENDBRANCH  14  17
ENDBRANCH   1  14
BRANCH   1  18
ATOM     18  C5  UNL     1     118.173 153.211 141.442  0.00  0.00    -0.300 C 
BRANCH  18  19
ATOM     19  C18 UNL     1     118.854 154.525 141.935  0.00  0.00    +1.160 C 
ATOM     20  C19 UNL     1     118.408 155.727 141.074  0.00  0.00    -0.472 C 
BRANCH  19  21
ATOM     21  N1  UNL     1     118.628 154.737 143.393  0.00  0.00    -0.430 NA
ATOM     22  C20 UNL     1     119.858 154.836 144.204  0.00  0.00    +0.081 C 
ATOM     23  C21 UNL     1     117.722 153.729 143.969  0.00  0.00    +0.054 C 
ENDBRANCH  19  21
ENDBRANCH  18  19
ENDBRANCH   1  18
TORSDOF 7
ENDMDL
MODEL 4
REMARK VINA RESULT:    -6.529      1.752      4.293
REMARK INTER + INTRA:         -10.051
REMARK INTER:                  -9.328
REMARK INTRA:                  -0.723
REMARK UNBOUND:                -0.850
REMARK  Name = Output/Trash/MethadoneMOL_ligand_intermediary.pdb
REMARK  11 active torsions:
REMARK  status: ('A' for Active; 'I' for Inactive)
REMARK    1  A    between atoms: C1_1  and  C2_2
REMARK    2  A    between atoms: C2_2  and  C3_3
REMARK    3  A    between atoms: C3_3  and  C4_4
REMARK    4  A    between atoms: C4_4  and  C5_5
REMARK    5  A    between atoms: C4_4  and  C6_7
REMARK    6  A    between atoms: C4_4  and  C7_8
REMARK    7  A    between atoms: C5_5  and  C18_19
REMARK    8  A    between atoms: C18_19  and  N1_20
REMARK    9  A    between atoms: C18_19  and  C19_21
REMARK   10  A    between atoms: N1_20  and  C20_22
REMARK   11  A    between atoms: N1_20  and  C21_23
REMARK                            x       y       z     vdW  Elec       q    Type
REMARK                         _______ _______ _______ _____ _____    ______ ____
ROOT
ATOM      1  C4  UNL     1     119.406 152.238 141.034  0.00  0.00    -0.539 C 
ENDROOT
BRANCH   1   2
ATOM      2  C6  UNL     1     119.493 151.417 142.347  0.00  0.00    +0.441 A 
ATOM      3  C8  UNL     1     120.642 151.481 143.176  0.00  0.00    -0.276 A 
ATOM      4  C9  UNL     1     118.503 150.462 142.685  0.00  0.00    -0.238 A 
ATOM      5  C10 UNL     1     120.750 150.692 144.324  0.00  0.00    +0.146 A 
ATOM      6  C11 UNL     1     118.619 149.677 143.834  0.00  0.00    +0.113 A 
ATOM      7  C12 UNL     1     119.737 149.798 144.658  0.00  0.00    -0.132 A 
ENDBRANCH   1   2
BRANCH   1   8
ATOM      8  C7  UNL     1     118.651 151.446 139.943  0.00  0.00    +0.427 A 
ATOM      9  C13 UNL     1     117.238 151.401 139.968  0.00  0.00    -0.137 A 
ATOM     10  C14 UNL     1     119.321 150.649 138.985  0.00  0.00    -0.335 A 
ATOM     11  C15 UNL     1     116.526 150.641 139.037  0.00  0.00    +0.084 A 
ATOM     12  C16 UNL     1     118.601 149.894 138.054  0.00  0.00    +0.161 A 
ATOM     13  C17 UNL     1     117.207 149.894 138.077  0.00  0.00    -0.125 A 
ENDBRANCH   1   8
BRANCH   1  14
ATOM     14  C3  UNL     1     118.688 153.546 141.409  0.00  0.00    +1.175 C 
ATOM     15  O1  UNL     1     118.588 154.455 140.596  0.00  0.00    -0.583 OA
BRANCH  14  17
ATOM     16  C1  UNL     1     119.002 154.713 143.603  0.00  0.00    +0.055 C 
ATOM     17  C2  UNL     1     118.116 153.773 142.791  0.00  0.00    -0.331 C 
ENDBRANCH  14  17
ENDBRANCH   1  14
BRANCH   1  18
ATOM     18  C5  UNL     1     120.852 152.535 140.479  0.00  0.00    -0.300 C 
BRANCH  18  19
ATOM     19  C18 UNL     1     121.195 154.036 140.231  0.00  0.00    +1.160 C 
ATOM     20  C19 UNL     1     122.065 154.594 141.379  0.00  0.00    -0.472 C 
BRANCH  19  21
ATOM     21  N1  UNL     1     121.807 154.237 138.886  0.00  0.00    -0.430 NA
ATOM     22  C20 UNL     1     121.909 153.018 138.061  0.00  0.00    +0.081 C 
ATOM     23  C21 UNL     1     123.117 154.906 138.966  0.00  0.00    +0.054 C 
ENDBRANCH  19  21
ENDBRANCH  18  19
ENDBRANCH   1  18
TORSDOF 7
ENDMDL
MODEL 5
REMARK VINA RESULT:    -6.013     18.578     20.794
REMARK INTER + INTRA:          -9.324
REMARK INTER:                  -8.350
REMARK INTRA:                  -0.974
REMARK UNBOUND:                -0.850
REMARK  Name = Output/Trash/MethadoneMOL_ligand_intermediary.pdb
REMARK  11 active torsions:
REMARK  status: ('A' for Active; 'I' for Inactive)
REMARK    1  A    between atoms: C1_1  and  C2_2
REMARK    2  A    between atoms: C2_2  and  C3_3
REMARK    3  A    between atoms: C3_3  and  C4_4
REMARK    4  A    between atoms: C4_4  and  C5_5
REMARK    5  A    between atoms: C4_4  and  C6_7
REMARK    6  A    between atoms: C4_4  and  C7_8
REMARK    7  A    between atoms: C5_5  and  C18_19
REMARK    8  A    between atoms: C18_19  and  N1_20
REMARK    9  A    between atoms: C18_19  and  C19_21
REMARK   10  A    between atoms: N1_20  and  C20_22
REMARK   11  A    between atoms: N1_20  and  C21_23
REMARK                            x       y       z     vdW  Elec       q    Type
REMARK                         _______ _______ _______ _____ _____    ______ ____
ROOT
ATOM      1  C4  UNL     1     131.204 143.820 126.075  0.00  0.00    -0.539 C 
ENDROOT
BRANCH   1   2
ATOM      2  C6  UNL     1     130.789 145.205 126.636  0.00  0.00    +0.441 A 
ATOM      3  C8  UNL     1     129.681 145.910 126.102  0.00  0.00    -0.276 A 
ATOM      4  C9  UNL     1     131.589 145.882 127.588  0.00  0.00    -0.238 A 
ATOM      5  C10 UNL     1     129.347 147.187 126.559  0.00  0.00    +0.146 A 
ATOM      6  C11 UNL     1     131.248 147.159 128.041  0.00  0.00    +0.113 A 
ATOM      7  C12 UNL     1     130.123 147.807 127.534  0.00  0.00    -0.132 A 
ENDBRANCH   1   2
BRANCH   1   8
ATOM      8  C7  UNL     1     131.933 142.989 127.155  0.00  0.00    +0.427 A 
ATOM      9  C13 UNL     1     132.995 142.135 126.776  0.00  0.00    -0.137 A 
ATOM     10  C14 UNL     1     131.498 142.946 128.501  0.00  0.00    -0.335 A 
ATOM     11  C15 UNL     1     133.633 141.322 127.714  0.00  0.00    +0.084 A 
ATOM     12  C16 UNL     1     132.145 142.131 129.435  0.00  0.00    +0.161 A 
ATOM     13  C17 UNL     1     133.213 141.324 129.044  0.00  0.00    -0.125 A 
ENDBRANCH   1   8
BRANCH   1  14
ATOM     14  C3  UNL     1     129.898 143.154 125.607  0.00  0.00    +1.175 C 
ATOM     15  O1  UNL     1     129.061 142.789 126.422  0.00  0.00    -0.583 OA
BRANCH  14  17
ATOM     16  C1  UNL     1     129.952 141.456 123.768  0.00  0.00    +0.055 C 
ATOM     17  C2  UNL     1     129.616 142.896 124.145  0.00  0.00    -0.331 C 
ENDBRANCH  14  17
ENDBRANCH   1  14
BRANCH   1  18
ATOM     18  C5  UNL     1     132.203 143.997 124.868  0.00  0.00    -0.300 C 
BRANCH  18  19
ATOM     19  C18 UNL     1     132.971 145.353 124.807  0.00  0.00    +1.160 C 
ATOM     20  C19 UNL     1     134.453 145.158 125.195  0.00  0.00    -0.472 C 
BRANCH  19  21
ATOM     21  N1  UNL     1     132.796 146.016 123.484  0.00  0.00    -0.430 NA
ATOM     22  C20 UNL     1     131.952 147.227 123.502  0.00  0.00    +0.081 C 
ATOM     23  C21 UNL     1     132.317 145.081 122.452  0.00  0.00    +0.054 C 
ENDBRANCH  19  21
ENDBRANCH  18  19
ENDBRANCH   1  18
TORSDOF 7
ENDMDL
MODEL 6
REMARK VINA RESULT:    -5.927     18.394     20.774
REMARK INTER + INTRA:          -9.203
REMARK INTER:                  -8.225
REMARK INTRA:                  -0.978
REMARK UNBOUND:                -0.850
REMARK  Name = Output/Trash/MethadoneMOL_ligand_intermediary.pdb
REMARK  11 active torsions:
REMARK  status: ('A' for Active; 'I' for Inactive)
REMARK    1  A    between atoms: C1_1  and  C2_2
REMARK    2  A    between atoms: C2_2  and  C3_3
REMARK    3  A    between atoms: C3_3  and  C4_4
REMARK    4  A    between atoms: C4_4  and  C5_5
REMARK    5  A    between atoms: C4_4  and  C6_7
REMARK    6  A    between atoms: C4_4  and  C7_8
REMARK    7  A    between atoms: C5_5  and  C18_19
REMARK    8  A    between atoms: C18_19  and  N1_20
REMARK    9  A    between atoms: C18_19  and  C19_21
REMARK   10  A    between atoms: N1_20  and  C20_22
REMARK   11  A    between atoms: N1_20  and  C21_23
REMARK                            x       y       z     vdW  Elec       q    Type
REMARK                         _______ _______ _______ _____ _____    ______ ____
ROOT
ATOM      1  C4  UNL     1     131.667 145.237 126.109  0.00  0.00    -0.539 C 
ENDROOT
BRANCH   1   2
ATOM      2  C6  UNL     1     132.082 144.163 127.148  0.00  0.00    +0.441 A 
ATOM      3  C8  UNL     1     133.278 143.416 126.992  0.00  0.00    -0.276 A 
ATOM      4  C9  UNL     1     131.213 143.782 128.198  0.00  0.00    -0.238 A 
ATOM      5  C10 UNL     1     133.619 142.403 127.891  0.00  0.00    +0.146 A 
ATOM      6  C11 UNL     1     131.562 142.767 129.093  0.00  0.00    +0.113 A 
ATOM      7  C12 UNL     1     132.768 142.084 128.945  0.00  0.00    -0.132 A 
ENDBRANCH   1   2
BRANCH   1   8
ATOM      8  C7  UNL     1     130.776 146.317 126.763  0.00  0.00    +0.427 A 
ATOM      9  C13 UNL     1     129.437 146.466 126.335  0.00  0.00    -0.137 A 
ATOM     10  C14 UNL     1     131.283 147.257 127.691  0.00  0.00    -0.335 A 
ATOM     11  C15 UNL     1     128.623 147.473 126.858  0.00  0.00    +0.084 A 
ATOM     12  C16 UNL     1     130.461 148.261 128.213  0.00  0.00    +0.161 A 
ATOM     13  C17 UNL     1     129.133 148.366 127.801  0.00  0.00    -0.125 A 
ENDBRANCH   1   8
BRANCH   1  14
ATOM     14  C3  UNL     1     132.984 145.817 125.563  0.00  0.00    +1.175 C 
ATOM     15  O1  UNL     1     133.909 146.076 126.320  0.00  0.00    -0.583 OA
BRANCH  14  17
ATOM     16  C1  UNL     1     132.723 147.537 123.762  0.00  0.00    +0.055 C 
ATOM     17  C2  UNL     1     133.172 146.118 124.093  0.00  0.00    -0.331 C 
ENDBRANCH  14  17
ENDBRANCH   1  14
BRANCH   1  18
ATOM     18  C5  UNL     1     130.826 144.577 124.949  0.00  0.00    -0.300 C 
BRANCH  18  19
ATOM     19  C18 UNL     1     131.001 143.038 124.766  0.00  0.00    +1.160 C 
ATOM     20  C19 UNL     1     129.629 142.351 124.587  0.00  0.00    -0.472 C 
BRANCH  19  21
ATOM     21  N1  UNL     1     131.955 142.728 123.664  0.00  0.00    -0.430 NA
ATOM     22  C20 UNL     1     131.552 143.225 122.334  0.00  0.00    +0.081 C 
ATOM     23  C21 UNL     1     132.274 141.292 123.593  0.00  0.00    +0.054 C 
ENDBRANCH  19  21
ENDBRANCH  18  19
ENDBRANCH   1  18
TORSDOF 7
ENDMDL
MODEL 7
REMARK VINA RESULT:    -5.790      2.627      5.581
REMARK INTER + INTRA:          -9.009
REMARK INTER:                  -8.159
REMARK INTRA:                  -0.850
REMARK UNBOUND:                -0.850
REMARK  Name = Output/Trash/MethadoneMOL_ligand_intermediary.pdb
REMARK  11 active torsions:
REMARK  status: ('A' for Active; 'I' for Inactive)
REMARK    1  A    between atoms: C1_1  and  C2_2
REMARK    2  A    between atoms: C2_2  and  C3_3
REMARK    3  A    between atoms: C3_3  and  C4_4
REMARK    4  A    between atoms: C4_4  and  C5_5
REMARK    5  A    between atoms: C4_4  and  C6_7
REMARK    6  A    between atoms: C4_4  and  C7_8
REMARK    7  A    between atoms: C5_5  and  C18_19
REMARK    8  A    between atoms: C18_19  and  N1_20
REMARK    9  A    between atoms: C18_19  and  C19_21
REMARK   10  A    between atoms: N1_20  and  C20_22
REMARK   11  A    between atoms: N1_20  and  C21_23
REMARK                            x       y       z     vdW  Elec       q    Type
REMARK                         _______ _______ _______ _____ _____    ______ ____
ROOT
ATOM      1  C4  UNL     1     119.113 152.033 143.415  0.00  0.00    -0.539 C 
ENDROOT
BRANCH   1   2
ATOM      2  C6  UNL     1     119.155 153.415 142.712  0.00  0.00    +0.441 A 
ATOM      3  C8  UNL     1     120.313 154.232 142.770  0.00  0.00    -0.276 A 
ATOM      4  C9  UNL     1     117.996 153.976 142.122  0.00  0.00    -0.238 A 
ATOM      5  C10 UNL     1     120.330 155.505 142.195  0.00  0.00    +0.146 A 
ATOM      6  C11 UNL     1     118.021 155.250 141.549  0.00  0.00    +0.113 A 
ATOM      7  C12 UNL     1     119.189 156.010 141.577  0.00  0.00    -0.132 A 
ENDBRANCH   1   2
BRANCH   1   8
ATOM      8  C7  UNL     1     120.304 151.878 144.388  0.00  0.00    +0.427 A 
ATOM      9  C13 UNL     1     120.726 150.583 144.769  0.00  0.00    -0.137 A 
ATOM     10  C14 UNL     1     120.914 152.986 145.022  0.00  0.00    -0.335 A 
ATOM     11  C15 UNL     1     121.755 150.407 145.696  0.00  0.00    +0.084 A 
ATOM     12  C16 UNL     1     121.946 152.801 145.947  0.00  0.00    +0.161 A 
ATOM     13  C17 UNL     1     122.369 151.514 146.279  0.00  0.00    -0.125 A 
ENDBRANCH   1   8
BRANCH   1  14
ATOM     14  C3  UNL     1     117.756 151.976 144.137  0.00  0.00    +1.175 C 
ATOM     15  O1  UNL     1     116.909 151.158 143.803  0.00  0.00    -0.583 OA
BRANCH  14  17
ATOM     16  C1  UNL     1     117.330 152.217 146.592  0.00  0.00    +0.055 C 
ATOM     17  C2  UNL     1     117.405 152.937 145.250  0.00  0.00    -0.331 C 
ENDBRANCH  14  17
ENDBRANCH   1  14
BRANCH   1  18
ATOM     18  C5  UNL     1     119.227 150.875 142.349  0.00  0.00    -0.300 C 
BRANCH  18  19
ATOM     19  C18 UNL     1     119.856 151.267 140.977  0.00  0.00    +1.160 C 
ATOM     20  C19 UNL     1     121.338 150.836 140.913  0.00  0.00    -0.472 C 
BRANCH  19  21
ATOM     21  N1  UNL     1     119.047 150.743 139.840  0.00  0.00    -0.430 NA
ATOM     22  C20 UNL     1     119.408 151.289 138.517  0.00  0.00    +0.081 C 
ATOM     23  C21 UNL     1     117.600 150.892 140.072  0.00  0.00    +0.054 C 
ENDBRANCH  19  21
ENDBRANCH  18  19
ENDBRANCH   1  18
TORSDOF 7
ENDMDL
MODEL 8
REMARK VINA RESULT:    -5.733      2.041      5.435
REMARK INTER + INTRA:          -8.929
REMARK INTER:                  -8.638
REMARK INTRA:                  -0.291
REMARK UNBOUND:                -0.850
REMARK  Name = Output/Trash/MethadoneMOL_ligand_intermediary.pdb
REMARK  11 active torsions:
REMARK  status: ('A' for Active; 'I' for Inactive)
REMARK    1  A    between atoms: C1_1  and  C2_2
REMARK    2  A    between atoms: C2_2  and  C3_3
REMARK    3  A    between atoms: C3_3  and  C4_4
REMARK    4  A    between atoms: C4_4  and  C5_5
REMARK    5  A    between atoms: C4_4  and  C6_7
REMARK    6  A    between atoms: C4_4  and  C7_8
REMARK    7  A    between atoms: C5_5  and  C18_19
REMARK    8  A    between atoms: C18_19  and  N1_20
REMARK    9  A    between atoms: C18_19  and  C19_21
REMARK   10  A    between atoms: N1_20  and  C20_22
REMARK   11  A    between atoms: N1_20  and  C21_23
REMARK                            x       y       z     vdW  Elec       q    Type
REMARK                         _______ _______ _______ _____ _____    ______ ____
ROOT
ATOM      1  C4  UNL     1     120.750 154.561 141.553  0.00  0.00    -0.539 C 
ENDROOT
BRANCH   1   2
ATOM      2  C6  UNL     1     122.063 154.813 140.767  0.00  0.00    +0.441 A 
ATOM      3  C8  UNL     1     122.124 154.627 139.363  0.00  0.00    -0.276 A 
ATOM      4  C9  UNL     1     123.280 155.085 141.438  0.00  0.00    -0.238 A 
ATOM      5  C10 UNL     1     123.322 154.789 138.663  0.00  0.00    +0.146 A 
ATOM      6  C11 UNL     1     124.475 155.246 140.731  0.00  0.00    +0.113 A 
ATOM      7  C12 UNL     1     124.494 155.106 139.344  0.00  0.00    -0.132 A 
ENDBRANCH   1   2
BRANCH   1   8
ATOM      8  C7  UNL     1     120.700 155.432 142.828  0.00  0.00    +0.427 A 
ATOM      9  C13 UNL     1     120.410 154.826 144.073  0.00  0.00    -0.137 A 
ATOM     10  C14 UNL     1     120.805 156.842 142.788  0.00  0.00    -0.335 A 
ATOM     11  C15 UNL     1     120.292 155.592 145.235  0.00  0.00    +0.084 A 
ATOM     12  C16 UNL     1     120.689 157.601 143.956  0.00  0.00    +0.161 A 
ATOM     13  C17 UNL     1     120.438 156.977 145.178  0.00  0.00    -0.125 A 
ENDBRANCH   1   8
BRANCH   1  14
ATOM     14  C3  UNL     1     119.610 154.891 140.573  0.00  0.00    +1.175 C 
ATOM     15  O1  UNL     1     119.713 154.615 139.386  0.00  0.00    -0.583 OA
BRANCH  14  17
ATOM     16  C1  UNL     1     118.127 156.881 140.239  0.00  0.00    +0.055 C 
ATOM     17  C2  UNL     1     118.350 155.593 141.026  0.00  0.00    -0.331 C 
ENDBRANCH  14  17
ENDBRANCH   1  14
BRANCH   1  18
ATOM     18  C5  UNL     1     120.670 153.054 142.012  0.00  0.00    -0.300 C 
BRANCH  18  19
ATOM     19  C18 UNL     1     120.222 152.029 140.925  0.00  0.00    +1.160 C 
ATOM     20  C19 UNL     1     121.367 151.046 140.597  0.00  0.00    -0.472 C 
BRANCH  19  21
ATOM     21  N1  UNL     1     118.958 151.342 141.317  0.00  0.00    -0.430 NA
ATOM     22  C20 UNL     1     117.945 151.249 140.248  0.00  0.00    +0.081 C 
ATOM     23  C21 UNL     1     118.362 151.924 142.531  0.00  0.00    +0.054 C 
ENDBRANCH  19  21
ENDBRANCH  18  19
ENDBRANCH   1  18
TORSDOF 7
ENDMDL
MODEL 9
REMARK VINA RESULT:    -5.696     18.699     20.902
REMARK INTER + INTRA:          -8.877
REMARK INTER:                  -8.194
REMARK INTRA:                  -0.683
REMARK UNBOUND:                -0.850
REMARK  Name = Output/Trash/MethadoneMOL_ligand_intermediary.pdb
REMARK  11 active torsions:
REMARK  status: ('A' for Active; 'I' for Inactive)
REMARK    1  A    between atoms: C1_1  and  C2_2
REMARK    2  A    between atoms: C2_2  and  C3_3
REMARK    3  A    between atoms: C3_3  and  C4_4
REMARK    4  A    between atoms: C4_4  and  C5_5
REMARK    5  A    between atoms: C4_4  and  C6_7
REMARK    6  A    between atoms: C4_4  and  C7_8
REMARK    7  A    between atoms: C5_5  and  C18_19
REMARK    8  A    between atoms: C18_19  and  N1_20
REMARK    9  A    between atoms: C18_19  and  C19_21
REMARK   10  A    between atoms: N1_20  and  C20_22
REMARK   11  A    between atoms: N1_20  and  C21_23
REMARK                            x       y       z     vdW  Elec       q    Type
REMARK                         _______ _______ _______ _____ _____    ______ ____
ROOT
ATOM      1  C4  UNL     1     131.285 144.397 125.897  0.00  0.00    -0.539 C 
ENDROOT
BRANCH   1   2
ATOM      2  C6  UNL     1     130.764 145.697 126.564  0.00  0.00    +0.441 A 
ATOM      3  C8  UNL     1     129.425 146.129 126.381  0.00  0.00    -0.276 A 
ATOM      4  C9  UNL     1     131.640 146.576 127.245  0.00  0.00    -0.238 A 
ATOM      5  C10 UNL     1     128.973 147.333 126.925  0.00  0.00    +0.146 A 
ATOM      6  C11 UNL     1     131.180 147.779 127.786  0.00  0.00    +0.113 A 
ATOM      7  C12 UNL     1     129.845 148.153 127.634  0.00  0.00    -0.132 A 
ENDBRANCH   1   2
BRANCH   1   8
ATOM      8  C7  UNL     1     131.803 143.406 126.963  0.00  0.00    +0.427 A 
ATOM      9  C13 UNL     1     131.204 143.386 128.244  0.00  0.00    -0.137 A 
ATOM     10  C14 UNL     1     132.947 142.599 126.756  0.00  0.00    -0.335 A 
ATOM     11  C15 UNL     1     131.689 142.549 129.252  0.00  0.00    +0.084 A 
ATOM     12  C16 UNL     1     133.425 141.762 127.769  0.00  0.00    +0.161 A 
ATOM     13  C17 UNL     1     132.794 141.734 129.012  0.00  0.00    -0.125 A 
ENDBRANCH   1   8
BRANCH   1  14
ATOM     14  C3  UNL     1     130.095 143.832 125.102  0.00  0.00    +1.175 C 
ATOM     15  O1  UNL     1     129.436 144.559 124.371  0.00  0.00    -0.583 OA
BRANCH  14  17
ATOM     16  C1  UNL     1     130.002 141.616 123.940  0.00  0.00    +0.055 C 
ATOM     17  C2  UNL     1     129.676 142.384 125.218  0.00  0.00    -0.331 C 
ENDBRANCH  14  17
ENDBRANCH   1  14
BRANCH   1  18
ATOM     18  C5  UNL     1     132.493 144.723 124.936  0.00  0.00    -0.300 C 
BRANCH  18  19
ATOM     19  C18 UNL     1     132.119 145.325 123.547  0.00  0.00    +1.160 C 
ATOM     20  C19 UNL     1     132.442 146.835 123.502  0.00  0.00    -0.472 C 
BRANCH  19  21
ATOM     21  N1  UNL     1     132.754 144.561 122.436  0.00  0.00    -0.430 NA
ATOM     22  C20 UNL     1     131.810 143.847 121.554  0.00  0.00    +0.081 C 
ATOM     23  C21 UNL     1     133.792 143.635 122.921  0.00  0.00    +0.054 C 
ENDBRANCH  19  21
ENDBRANCH  18  19
ENDBRANCH   1  18
TORSDOF 7
ENDMDL
