MODEL 1
REMARK VINA RESULT:    -7.539      0.000      0.000
REMARK INTER + INTRA:          -7.980
REMARK INTER:                  -7.980
REMARK INTRA:                   0.000
REMARK UNBOUND:                 0.000
REMARK  Name = Output/Trash/MorphineSDF_ligand_intermediary.pdb
REMARK  3 active torsions:
REMARK  status: ('A' for Active; 'I' for Inactive)
REMARK    1  A    between atoms: O2_2  and  C10_14
REMARK    2  A    between atoms: O3_3  and  C16_20
REMARK    3  A    between atoms: N1_4  and  C14_18
REMARK                            x       y       z     vdW  Elec       q    Type
REMARK                         _______ _______ _______ _____ _____    ______ ____
ROOT
ATOM      1  O1  UNL     1     120.556 116.661  90.757  0.00  0.00    -0.449 OA
ATOM      2  N1  UNL     1     120.813 119.327  95.274  0.00  0.00    -0.644 NA
ATOM      3  C1  UNL     1     120.954 118.022  92.680  0.00  0.00    +0.651 C 
ATOM      4  C2  UNL     1     121.083 119.551  92.849  0.00  0.00    -0.615 C 
ATOM      5  C3  UNL     1     120.214 119.960  94.070  0.00  0.00    +0.961 C 
ATOM      6  C4  UNL     1     121.598 117.438  91.367  0.00  0.00    +0.075 C 
ATOM      7  C5  UNL     1     121.484 117.319  93.952  0.00  0.00    -0.509 C 
ATOM      8  C6  UNL     1     119.516 117.697  92.472  0.00  0.00    -0.625 A 
ATOM      9  C7  UNL     1     118.692 119.609  93.876  0.00  0.00    -0.649 C 
ATOM     10  C8  UNL     1     120.801 117.849  95.230  0.00  0.00    +0.547 C 
ATOM     11  C9  UNL     1     118.440 118.367  93.049  0.00  0.00    +0.652 A 
ATOM     12  C10 UNL     1     122.090 118.544  90.397  0.00  0.00    +0.771 C 
ATOM     13  C11 UNL     1     120.717 120.250  91.559  0.00  0.00    +0.326 C 
ATOM     14  C12 UNL     1     119.352 116.887  91.391  0.00  0.00    +0.450 A 
ATOM     15  C13 UNL     1     121.167 119.748  90.399  0.00  0.00    -0.545 C 
ATOM     16  C14 UNL     1     120.262 119.833  96.541  0.00  0.00    +0.057 C 
ATOM     17  C15 UNL     1     117.142 117.992  92.652  0.00  0.00    -0.058 A 
ATOM     18  C16 UNL     1     118.085 116.490  90.967  0.00  0.00    +0.912 A 
ATOM     19  C17 UNL     1     116.965 117.024  91.638  0.00  0.00    -0.558 A 
ENDROOT
BRANCH  12  20
ATOM     20  O2  UNL     1     122.211 118.023  89.099  0.00  0.00    -1.004 OA
ATOM     21  H1  UNL     1     121.427 117.432  88.954  0.00  0.00    +0.647 HD
ENDBRANCH  12  20
BRANCH  18  22
ATOM     22  O3  UNL     1     117.940 115.621  89.890  0.00  0.00    -1.068 OA
ATOM     23  H2  UNL     1     117.464 114.732  89.991  0.00  0.00    +0.674 HD
ENDBRANCH  18  22
TORSDOF 2
ENDMDL
MODEL 2
REMARK VINA RESULT:    -7.286      2.654      4.934
REMARK INTER + INTRA:          -7.712
REMARK INTER:                  -7.712
REMARK INTRA:                   0.000
REMARK UNBOUND:                 0.000
REMARK  Name = Output/Trash/MorphineSDF_ligand_intermediary.pdb
REMARK  3 active torsions:
REMARK  status: ('A' for Active; 'I' for Inactive)
REMARK    1  A    between atoms: O2_2  and  C10_14
REMARK    2  A    between atoms: O3_3  and  C16_20
REMARK    3  A    between atoms: N1_4  and  C14_18
REMARK                            x       y       z     vdW  Elec       q    Type
REMARK                         _______ _______ _______ _____ _____    ______ ____
ROOT
ATOM      1  O1  UNL     1     122.344 118.399  94.672  0.00  0.00    -0.449 OA
ATOM      2  N1  UNL     1     118.398 116.462  91.800  0.00  0.00    -0.644 NA
ATOM      3  C1  UNL     1     120.359 117.549  93.651  0.00  0.00    +0.651 C 
ATOM      4  C2  UNL     1     118.947 118.153  93.487  0.00  0.00    -0.615 C 
ATOM      5  C3  UNL     1     118.513 117.928  92.012  0.00  0.00    +0.961 C 
ATOM      6  C4  UNL     1     121.062 117.858  95.025  0.00  0.00    +0.075 C 
ATOM      7  C5  UNL     1     120.306 116.033  93.349  0.00  0.00    -0.509 C 
ATOM      8  C6  UNL     1     121.271 118.233  92.693  0.00  0.00    -0.625 A 
ATOM      9  C7  UNL     1     119.475 118.631  90.983  0.00  0.00    -0.649 C 
ATOM     10  C8  UNL     1     119.677 115.740  91.971  0.00  0.00    +0.547 C 
ATOM     11  C9  UNL     1     120.920 118.699  91.428  0.00  0.00    +0.652 A 
ATOM     12  C10 UNL     1     120.265 118.868  95.893  0.00  0.00    +0.771 C 
ATOM     13  C11 UNL     1     118.945 119.599  93.926  0.00  0.00    +0.326 C 
ATOM     14  C12 UNL     1     122.402 118.659  93.319  0.00  0.00    +0.450 A 
ATOM     15  C13 UNL     1     119.601 119.937  95.047  0.00  0.00    -0.545 C 
ATOM     16  C14 UNL     1     117.741 116.100  90.534  0.00  0.00    +0.057 C 
ATOM     17  C15 UNL     1     121.886 119.423  90.702  0.00  0.00    -0.058 A 
ATOM     18  C16 UNL     1     123.383 119.376  92.636  0.00  0.00    +0.912 A 
ATOM     19  C17 UNL     1     123.133 119.726  91.293  0.00  0.00    -0.558 A 
ENDROOT
BRANCH  12  20
ATOM     20  O2  UNL     1     121.114 119.455  96.844  0.00  0.00    -1.004 OA
ATOM     21  H1  UNL     1     121.657 120.133  96.363  0.00  0.00    +0.647 HD
ENDBRANCH  12  20
BRANCH  18  22
ATOM     22  O3  UNL     1     124.556 119.758  93.280  0.00  0.00    -1.068 OA
ATOM     23  H2  UNL     1     124.540 120.143  94.217  0.00  0.00    +0.674 HD
ENDBRANCH  18  22
TORSDOF 2
ENDMDL
MODEL 3
REMARK VINA RESULT:    -7.184      2.523      4.608
REMARK INTER + INTRA:          -7.604
REMARK INTER:                  -7.604
REMARK INTRA:                   0.000
REMARK UNBOUND:                 0.000
REMARK  Name = Output/Trash/MorphineSDF_ligand_intermediary.pdb
REMARK  3 active torsions:
REMARK  status: ('A' for Active; 'I' for Inactive)
REMARK    1  A    between atoms: O2_2  and  C10_14
REMARK    2  A    between atoms: O3_3  and  C16_20
REMARK    3  A    between atoms: N1_4  and  C14_18
REMARK                            x       y       z     vdW  Elec       q    Type
REMARK                         _______ _______ _______ _____ _____    ______ ____
ROOT
ATOM      1  O1  UNL     1     120.660 119.124  92.807  0.00  0.00    -0.449 OA
ATOM      2  N1  UNL     1     117.427 115.855  90.269  0.00  0.00    -0.644 NA
ATOM      3  C1  UNL     1     119.285 117.804  91.367  0.00  0.00    +0.651 C 
ATOM      4  C2  UNL     1     119.620 116.941  90.131  0.00  0.00    -0.615 C 
ATOM      5  C3  UNL     1     118.888 115.582  90.300  0.00  0.00    +0.961 C 
ATOM      6  C4  UNL     1     120.098 119.146  91.486  0.00  0.00    +0.075 C 
ATOM      7  C5  UNL     1     117.757 118.040  91.428  0.00  0.00    -0.509 C 
ATOM      8  C6  UNL     1     119.742 117.074  92.581  0.00  0.00    -0.625 A 
ATOM      9  C7  UNL     1     119.347 114.801  91.588  0.00  0.00    -0.649 C 
ATOM     10  C8  UNL     1     116.966 116.716  91.379  0.00  0.00    +0.547 C 
ATOM     11  C9  UNL     1     119.736 115.691  92.748  0.00  0.00    +0.652 A 
ATOM     12  C10 UNL     1     121.220 119.264  90.420  0.00  0.00    +0.771 C 
ATOM     13  C11 UNL     1     121.118 116.829  89.965  0.00  0.00    +0.326 C 
ATOM     14  C12 UNL     1     120.484 117.883  93.385  0.00  0.00    +0.450 A 
ATOM     15  C13 UNL     1     121.874 117.924  90.139  0.00  0.00    -0.545 C 
ATOM     16  C14 UNL     1     116.604 114.641  90.151  0.00  0.00    +0.057 C 
ATOM     17  C15 UNL     1     120.311 115.167  93.923  0.00  0.00    -0.058 A 
ATOM     18  C16 UNL     1     121.068 117.405  94.557  0.00  0.00    +0.912 A 
ATOM     19  C17 UNL     1     120.941 116.031  94.846  0.00  0.00    -0.558 A 
ENDROOT
BRANCH  12  20
ATOM     20  O2  UNL     1     122.181 120.198  90.839  0.00  0.00    -1.004 OA
ATOM     21  H1  UNL     1     123.018 119.987  90.348  0.00  0.00    +0.647 HD
ENDBRANCH  12  20
BRANCH  18  22
ATOM     22  O3  UNL     1     121.781 118.261  95.391  0.00  0.00    -1.068 OA
ATOM     23  H2  UNL     1     122.284 119.059  95.021  0.00  0.00    +0.674 HD
ENDBRANCH  18  22
TORSDOF 2
ENDMDL
MODEL 4
REMARK VINA RESULT:    -6.968      2.408      4.316
REMARK INTER + INTRA:          -7.375
REMARK INTER:                  -7.375
REMARK INTRA:                   0.000
REMARK UNBOUND:                 0.000
REMARK  Name = Output/Trash/MorphineSDF_ligand_intermediary.pdb
REMARK  3 active torsions:
REMARK  status: ('A' for Active; 'I' for Inactive)
REMARK    1  A    between atoms: O2_2  and  C10_14
REMARK    2  A    between atoms: O3_3  and  C16_20
REMARK    3  A    between atoms: N1_4  and  C14_18
REMARK                            x       y       z     vdW  Elec       q    Type
REMARK                         _______ _______ _______ _____ _____    ______ ____
ROOT
ATOM      1  O1  UNL     1     123.209 118.327  93.099  0.00  0.00    -0.449 OA
ATOM      2  N1  UNL     1     118.182 116.894  92.596  0.00  0.00    -0.644 NA
ATOM      3  C1  UNL     1     120.877 117.815  93.182  0.00  0.00    +0.651 C 
ATOM      4  C2  UNL     1     119.633 118.710  93.371  0.00  0.00    -0.615 C 
ATOM      5  C3  UNL     1     118.590 118.291  92.299  0.00  0.00    +0.961 C 
ATOM      6  C4  UNL     1     122.131 118.222  94.041  0.00  0.00    +0.075 C 
ATOM      7  C5  UNL     1     120.479 116.334  93.392  0.00  0.00    -0.509 C 
ATOM      8  C6  UNL     1     121.390 118.019  91.799  0.00  0.00    -0.625 A 
ATOM      9  C7  UNL     1     119.120 118.485  90.829  0.00  0.00    -0.649 C 
ATOM     10  C8  UNL     1     119.292 115.922  92.497  0.00  0.00    +0.547 C 
ATOM     11  C9  UNL     1     120.611 118.275  90.673  0.00  0.00    +0.652 A 
ATOM     12  C10 UNL     1     121.932 119.565  94.793  0.00  0.00    +0.771 C 
ATOM     13  C11 UNL     1     120.029 120.168  93.323  0.00  0.00    +0.326 C 
ATOM     14  C12 UNL     1     122.728 118.265  91.808  0.00  0.00    +0.450 A 
ATOM     15  C13 UNL     1     121.138 120.561  93.969  0.00  0.00    -0.545 C 
ATOM     16  C14 UNL     1     117.007 116.448  91.830  0.00  0.00    +0.057 C 
ATOM     17  C15 UNL     1     121.275 118.551  89.462  0.00  0.00    -0.058 A 
ATOM     18  C16 UNL     1     123.423 118.541  90.632  0.00  0.00    +0.912 A 
ATOM     19  C17 UNL     1     122.685 118.645  89.435  0.00  0.00    -0.558 A 
ENDROOT
BRANCH  12  20
ATOM     20  O2  UNL     1     123.179 120.106  95.143  0.00  0.00    -1.004 OA
ATOM     21  H1  UNL     1     123.822 119.818  94.444  0.00  0.00    +0.647 HD
ENDBRANCH  12  20
BRANCH  18  22
ATOM     22  O3  UNL     1     124.801 118.740  90.656  0.00  0.00    -1.068 OA
ATOM     23  H2  UNL     1     125.377 118.527  89.851  0.00  0.00    +0.674 HD
ENDBRANCH  18  22
TORSDOF 2
ENDMDL
MODEL 5
REMARK VINA RESULT:    -6.891      2.408      4.341
REMARK INTER + INTRA:          -7.294
REMARK INTER:                  -7.294
REMARK INTRA:                   0.000
REMARK UNBOUND:                 0.000
REMARK  Name = Output/Trash/MorphineSDF_ligand_intermediary.pdb
REMARK  3 active torsions:
REMARK  status: ('A' for Active; 'I' for Inactive)
REMARK    1  A    between atoms: O2_2  and  C10_14
REMARK    2  A    between atoms: O3_3  and  C16_20
REMARK    3  A    between atoms: N1_4  and  C14_18
REMARK                            x       y       z     vdW  Elec       q    Type
REMARK                         _______ _______ _______ _____ _____    ______ ____
ROOT
ATOM      1  O1  UNL     1     119.280 119.323  93.879  0.00  0.00    -0.449 OA
ATOM      2  N1  UNL     1     123.244 118.248  90.606  0.00  0.00    -0.644 NA
ATOM      3  C1  UNL     1     121.287 118.861  92.667  0.00  0.00    +0.651 C 
ATOM      4  C2  UNL     1     122.371 117.776  92.847  0.00  0.00    -0.615 C 
ATOM      5  C3  UNL     1     122.660 117.170  91.446  0.00  0.00    +0.961 C 
ATOM      6  C4  UNL     1     120.704 119.453  94.004  0.00  0.00    +0.075 C 
ATOM      7  C5  UNL     1     121.818 119.965  91.722  0.00  0.00    -0.509 C 
ATOM      8  C6  UNL     1     120.079 118.218  92.079  0.00  0.00    -0.625 A 
ATOM      9  C7  UNL     1     121.390 116.499  90.801  0.00  0.00    -0.649 C 
ATOM     10  C8  UNL     1     122.326 119.386  90.385  0.00  0.00    +0.547 C 
ATOM     11  C9  UNL     1     120.081 117.162  91.171  0.00  0.00    +0.652 A 
ATOM     12  C10 UNL     1     121.210 118.700  95.263  0.00  0.00    +0.771 C 
ATOM     13  C11 UNL     1     121.932 116.770  93.885  0.00  0.00    +0.326 C 
ATOM     14  C12 UNL     1     118.962 118.549  92.782  0.00  0.00    +0.450 A 
ATOM     15  C13 UNL     1     121.351 117.211  95.012  0.00  0.00    -0.545 C 
ATOM     16  C14 UNL     1     123.815 117.764  89.339  0.00  0.00    +0.057 C 
ATOM     17  C15 UNL     1     118.840 116.606  90.805  0.00  0.00    -0.058 A 
ATOM     18  C16 UNL     1     117.714 118.022  92.452  0.00  0.00    +0.912 A 
ATOM     19  C17 UNL     1     117.652 117.065  91.418  0.00  0.00    -0.558 A 
ENDROOT
BRANCH  12  20
ATOM     20  O2  UNL     1     120.342 118.933  96.341  0.00  0.00    -1.004 OA
ATOM     21  H1  UNL     1     120.911 119.077  97.141  0.00  0.00    +0.647 HD
ENDBRANCH  12  20
BRANCH  18  22
ATOM     22  O3  UNL     1     116.575 118.411  93.151  0.00  0.00    -1.068 OA
ATOM     23  H2  UNL     1     115.971 119.147  92.806  0.00  0.00    +0.674 HD
ENDBRANCH  18  22
TORSDOF 2
ENDMDL
MODEL 6
REMARK VINA RESULT:    -6.809      6.275      8.735
REMARK INTER + INTRA:          -7.207
REMARK INTER:                  -7.207
REMARK INTRA:                   0.000
REMARK UNBOUND:                 0.000
REMARK  Name = Output/Trash/MorphineSDF_ligand_intermediary.pdb
REMARK  3 active torsions:
REMARK  status: ('A' for Active; 'I' for Inactive)
REMARK    1  A    between atoms: O2_2  and  C10_14
REMARK    2  A    between atoms: O3_3  and  C16_20
REMARK    3  A    between atoms: N1_4  and  C14_18
REMARK                            x       y       z     vdW  Elec       q    Type
REMARK                         _______ _______ _______ _____ _____    ______ ____
ROOT
ATOM      1  O1  UNL     1     129.368 120.756  90.411  0.00  0.00    -0.449 OA
ATOM      2  N1  UNL     1     124.655 118.441  90.489  0.00  0.00    -0.644 NA
ATOM      3  C1  UNL     1     127.390 119.425  90.564  0.00  0.00    +0.651 C 
ATOM      4  C2  UNL     1     126.745 118.674  91.748  0.00  0.00    -0.615 C 
ATOM      5  C3  UNL     1     125.227 119.006  91.739  0.00  0.00    +0.961 C 
ATOM      6  C4  UNL     1     128.963 119.383  90.523  0.00  0.00    +0.075 C 
ATOM      7  C5  UNL     1     126.758 118.933  89.240  0.00  0.00    -0.509 C 
ATOM      8  C6  UNL     1     127.139 120.881  90.744  0.00  0.00    -0.625 A 
ATOM      9  C7  UNL     1     124.941 120.544  91.913  0.00  0.00    -0.649 C 
ATOM     10  C8  UNL     1     125.219 119.039  89.260  0.00  0.00    +0.547 C 
ATOM     11  C9  UNL     1     125.998 121.445  91.311  0.00  0.00    +0.652 A 
ATOM     12  C10 UNL     1     129.579 118.736  91.793  0.00  0.00    +0.771 C 
ATOM     13  C11 UNL     1     127.454 119.025  93.036  0.00  0.00    +0.326 C 
ATOM     14  C12 UNL     1     128.290 121.594  90.606  0.00  0.00    +0.450 A 
ATOM     15  C13 UNL     1     128.795 119.088  93.042  0.00  0.00    -0.545 C 
ATOM     16  C14 UNL     1     123.184 118.442  90.461  0.00  0.00    +0.057 C 
ATOM     17  C15 UNL     1     125.980 122.840  91.503  0.00  0.00    -0.058 A 
ATOM     18  C16 UNL     1     128.314 122.976  90.785  0.00  0.00    +0.912 A 
ATOM     19  C17 UNL     1     127.125 123.610  91.202  0.00  0.00    -0.558 A 
ENDROOT
BRANCH  12  20
ATOM     20  O2  UNL     1     130.918 119.133  91.929  0.00  0.00    -1.004 OA
ATOM     21  H1  UNL     1     131.441 118.606  91.270  0.00  0.00    +0.647 HD
ENDBRANCH  12  20
BRANCH  18  22
ATOM     22  O3  UNL     1     129.490 123.693  90.589  0.00  0.00    -1.068 OA
ATOM     23  H2  UNL     1     130.318 123.253  90.205  0.00  0.00    +0.674 HD
ENDBRANCH  18  22
TORSDOF 2
ENDMDL
MODEL 7
REMARK VINA RESULT:    -6.616      2.778      5.038
REMARK INTER + INTRA:          -7.002
REMARK INTER:                  -7.002
REMARK INTRA:                   0.000
REMARK UNBOUND:                 0.000
REMARK  Name = Output/Trash/MorphineSDF_ligand_intermediary.pdb
REMARK  3 active torsions:
REMARK  status: ('A' for Active; 'I' for Inactive)
REMARK    1  A    between atoms: O2_2  and  C10_14
REMARK    2  A    between atoms: O3_3  and  C16_20
REMARK    3  A    between atoms: N1_4  and  C14_18
REMARK                            x       y       z     vdW  Elec       q    Type
REMARK                         _______ _______ _______ _____ _____    ______ ____
ROOT
ATOM      1  O1  UNL     1     122.302 117.937  93.926  0.00  0.00    -0.449 OA
ATOM      2  N1  UNL     1     118.742 115.480  90.948  0.00  0.00    -0.644 NA
ATOM      3  C1  UNL     1     120.460 117.054  92.688  0.00  0.00    +0.651 C 
ATOM      4  C2  UNL     1     119.517 117.697  91.648  0.00  0.00    -0.615 C 
ATOM      5  C3  UNL     1     119.404 116.713  90.450  0.00  0.00    +0.961 C 
ATOM      6  C4  UNL     1     120.868 117.988  93.887  0.00  0.00    +0.075 C 
ATOM      7  C5  UNL     1     119.853 115.715  93.170  0.00  0.00    -0.509 C 
ATOM      8  C6  UNL     1     121.778 116.818  92.037  0.00  0.00    -0.625 A 
ATOM      9  C7  UNL     1     120.791 116.438  89.758  0.00  0.00    -0.649 C 
ATOM     10  C8  UNL     1     119.517 114.776  91.993  0.00  0.00    +0.547 C 
ATOM     11  C9  UNL     1     121.975 116.476  90.701  0.00  0.00    +0.652 A 
ATOM     12  C10 UNL     1     120.381 119.450  93.702  0.00  0.00    +0.771 C 
ATOM     13  C11 UNL     1     120.012 119.077  91.279  0.00  0.00    +0.326 C 
ATOM     14  C12 UNL     1     122.792 117.302  92.804  0.00  0.00    +0.450 A 
ATOM     15  C13 UNL     1     120.453 119.889  92.252  0.00  0.00    -0.545 C 
ATOM     16  C14 UNL     1     118.326 114.561  89.876  0.00  0.00    +0.057 C 
ATOM     17  C15 UNL     1     123.300 116.400  90.230  0.00  0.00    -0.058 A 
ATOM     18  C16 UNL     1     124.118 117.244  92.375  0.00  0.00    +0.912 A 
ATOM     19  C17 UNL     1     124.373 116.746  91.081  0.00  0.00    -0.558 A 
ENDROOT
BRANCH  12  20
ATOM     20  O2  UNL     1     121.136 120.311  94.512  0.00  0.00    -1.004 OA
ATOM     21  H1  UNL     1     121.749 119.740  95.045  0.00  0.00    +0.647 HD
ENDBRANCH  12  20
BRANCH  18  22
ATOM     22  O3  UNL     1     125.146 117.698  93.196  0.00  0.00    -1.068 OA
ATOM     23  H2  UNL     1     126.110 117.444  93.020  0.00  0.00    +0.674 HD
ENDBRANCH  18  22
TORSDOF 2
ENDMDL
MODEL 8
REMARK VINA RESULT:    -6.505      1.610      4.113
REMARK INTER + INTRA:          -6.885
REMARK INTER:                  -6.885
REMARK INTRA:                   0.000
REMARK UNBOUND:                 0.000
REMARK  Name = Output/Trash/MorphineSDF_ligand_intermediary.pdb
REMARK  3 active torsions:
REMARK  status: ('A' for Active; 'I' for Inactive)
REMARK    1  A    between atoms: O2_2  and  C10_14
REMARK    2  A    between atoms: O3_3  and  C16_20
REMARK    3  A    between atoms: N1_4  and  C14_18
REMARK                            x       y       z     vdW  Elec       q    Type
REMARK                         _______ _______ _______ _____ _____    ______ ____
ROOT
ATOM      1  O1  UNL     1     120.749 116.733  89.690  0.00  0.00    -0.449 OA
ATOM      2  N1  UNL     1     120.481 118.689  94.557  0.00  0.00    -0.644 NA
ATOM      3  C1  UNL     1     120.304 117.502  91.908  0.00  0.00    +0.651 C 
ATOM      4  C2  UNL     1     119.852 116.759  93.184  0.00  0.00    -0.615 C 
ATOM      5  C3  UNL     1     120.756 117.243  94.350  0.00  0.00    +0.961 C 
ATOM      6  C4  UNL     1     119.646 116.997  90.571  0.00  0.00    +0.075 C 
ATOM      7  C5  UNL     1     120.121 119.025  92.111  0.00  0.00    -0.509 C 
ATOM      8  C6  UNL     1     121.739 117.184  91.669  0.00  0.00    -0.625 A 
ATOM      9  C7  UNL     1     122.280 116.929  94.108  0.00  0.00    -0.649 C 
ATOM     10  C8  UNL     1     120.826 119.527  93.388  0.00  0.00    +0.547 C 
ATOM     11  C9  UNL     1     122.699 116.967  92.654  0.00  0.00    +0.652 A 
ATOM     12  C10 UNL     1     118.790 115.717  90.770  0.00  0.00    +0.771 C 
ATOM     13  C11 UNL     1     119.876 115.266  92.952  0.00  0.00    +0.326 C 
ATOM     14  C12 UNL     1     121.941 116.792  90.381  0.00  0.00    +0.450 A 
ATOM     15  C13 UNL     1     119.405 114.781  91.793  0.00  0.00    -0.545 C 
ATOM     16  C14 UNL     1     121.063 119.228  95.796  0.00  0.00    +0.057 C 
ATOM     17  C15 UNL     1     123.985 116.566  92.243  0.00  0.00    -0.058 A 
ATOM     18  C16 UNL     1     123.199 116.390  89.934  0.00  0.00    +0.912 A 
ATOM     19  C17 UNL     1     124.244 116.317  90.877  0.00  0.00    -0.558 A 
ENDROOT
BRANCH  12  20
ATOM     20  O2  UNL     1     118.624 115.058  89.542  0.00  0.00    -1.004 OA
ATOM     21  H1  UNL     1     119.515 115.036  89.106  0.00  0.00    +0.647 HD
ENDBRANCH  12  20
BRANCH  18  22
ATOM     22  O3  UNL     1     123.396 116.042  88.601  0.00  0.00    -1.068 OA
ATOM     23  H2  UNL     1     124.106 116.495  88.038  0.00  0.00    +0.674 HD
ENDBRANCH  18  22
TORSDOF 2
ENDMDL
MODEL 9
REMARK VINA RESULT:    -6.288      8.238      9.948
REMARK INTER + INTRA:          -6.655
REMARK INTER:                  -6.655
REMARK INTRA:                   0.000
REMARK UNBOUND:                 0.000
REMARK  Name = Output/Trash/MorphineSDF_ligand_intermediary.pdb
REMARK  3 active torsions:
REMARK  status: ('A' for Active; 'I' for Inactive)
REMARK    1  A    between atoms: O2_2  and  C10_14
REMARK    2  A    between atoms: O3_3  and  C16_20
REMARK    3  A    between atoms: N1_4  and  C14_18
REMARK                            x       y       z     vdW  Elec       q    Type
REMARK                         _______ _______ _______ _____ _____    ______ ____
ROOT
ATOM      1  O1  UNL     1     129.702 122.911  89.777  0.00  0.00    -0.449 OA
ATOM      2  N1  UNL     1     127.632 118.579  91.904  0.00  0.00    -0.644 NA
ATOM      3  C1  UNL     1     128.609 121.153  90.969  0.00  0.00    +0.651 C 
ATOM      4  C2  UNL     1     127.119 120.893  91.283  0.00  0.00    -0.615 C 
ATOM      5  C3  UNL     1     126.829 119.401  90.962  0.00  0.00    +0.961 C 
ATOM      6  C4  UNL     1     129.052 122.661  91.032  0.00  0.00    +0.075 C 
ATOM      7  C5  UNL     1     129.486 120.247  91.866  0.00  0.00    -0.509 C 
ATOM      8  C6  UNL     1     128.843 120.837  89.533  0.00  0.00    -0.625 A 
ATOM      9  C7  UNL     1     127.087 119.044  89.451  0.00  0.00    -0.649 C 
ATOM     10  C8  UNL     1     129.091 118.761  91.748  0.00  0.00    +0.547 C 
ATOM     11  C9  UNL     1     128.204 119.835  88.806  0.00  0.00    +0.652 A 
ATOM     12  C10 UNL     1     127.856 123.630  91.228  0.00  0.00    +0.771 C 
ATOM     13  C11 UNL     1     126.251 121.875  90.531  0.00  0.00    +0.326 C 
ATOM     14  C12 UNL     1     129.505 121.853  88.914  0.00  0.00    +0.450 A 
ATOM     15  C13 UNL     1     126.623 123.163  90.478  0.00  0.00    -0.545 C 
ATOM     16  C14 UNL     1     127.264 117.153  91.902  0.00  0.00    +0.057 C 
ATOM     17  C15 UNL     1     128.471 119.752  87.426  0.00  0.00    -0.058 A 
ATOM     18  C16 UNL     1     129.790 121.808  87.550  0.00  0.00    +0.912 A 
ATOM     19  C17 UNL     1     129.297 120.717  86.806  0.00  0.00    -0.558 A 
ENDROOT
BRANCH  12  20
ATOM     20  O2  UNL     1     128.216 124.923  90.818  0.00  0.00    -1.004 OA
ATOM     21  H1  UNL     1     128.963 124.821  90.172  0.00  0.00    +0.647 HD
ENDBRANCH  12  20
BRANCH  18  22
ATOM     22  O3  UNL     1     130.512 122.833  86.946  0.00  0.00    -1.068 OA
ATOM     23  H2  UNL     1     131.433 122.670  86.558  0.00  0.00    +0.674 HD
ENDBRANCH  18  22
TORSDOF 2
ENDMDL
