REMARK  Name = Output/Trash/BU72_ligand_ligand_intermediary.pdb
REMARK  2 active torsions:
REMARK  status: ('A' for Active; 'I' for Inactive)
REMARK    1  A    between atoms: CBE_17  and  OAT_18
REMARK    2  A    between atoms: CAY_26  and  CAV_27
REMARK                            x       y       z     vdW  Elec       q    Type
REMARK                         _______ _______ _______ _____ _____    ______ ____
ROOT
ATOM      1  CAP VF1 A 407       2.347  15.505 -57.853  0.00  0.00    -0.017 C 
ATOM      2  CAO VF1 A 407       1.978  15.627 -56.389  0.00  0.00    +0.278 C 
ATOM      3  NBB VF1 A 407       1.134  16.818 -56.160  0.00  0.00    -0.604 NA
ATOM      4  CAB VF1 A 407       0.889  16.973 -54.733  0.00  0.00    +0.239 C 
ATOM      5  CAZ VF1 A 407      -0.126  16.735 -56.923  0.00  0.00    +0.492 C 
ATOM      6  CAQ VF1 A 407      -1.015  15.520 -56.647  0.00  0.00    -0.201 C 
ATOM      7  CAW VF1 A 407      -0.740  14.319 -57.522  0.00  0.00    -0.014 A 
ATOM      8  CAM VF1 A 407      -1.479  13.152 -57.340  0.00  0.00    +0.124 A 
ATOM      9  CAL VF1 A 407      -1.250  12.014 -58.111  0.00  0.00    -0.383 A 
ATOM     10  CAU VF1 A 407      -0.233  12.026 -59.039  0.00  0.00    +0.847 A 
ATOM     11  OAD VF1 A 407       0.108  10.990 -59.824  0.00  0.00    -0.392 OA
ATOM     12  CAN VF1 A 407       0.527  13.179 -59.211  0.00  0.00    -0.351 A 
ATOM     13  CAX VF1 A 407       0.264  14.338 -58.495  0.00  0.00    +0.008 A 
ATOM     14  CBF VF1 A 407       1.105  15.607 -58.756  0.00  0.00    +0.095 C 
ATOM     15  CBA VF1 A 407       1.531  15.811 -60.223  0.00  0.00    +0.021 C 
ATOM     16  NAS VF1 A 407       2.821  16.556 -60.232  0.00  0.00    -0.391 NA
ATOM     17  CBE VF1 A 407       0.671  16.837 -60.980  0.00  0.00    +0.789 C 
ATOM     18  CAF VF1 A 407      -0.772  16.738 -60.576  0.00  0.00    -0.272 C 
ATOM     19  CAE VF1 A 407      -1.012  16.750 -59.282  0.00  0.00    +0.097 C 
ATOM     20  CBD VF1 A 407       0.195  16.837 -58.421  0.00  0.00    -0.321 C 
ATOM     21  CAR VF1 A 407       0.913  18.113 -58.850  0.00  0.00    +0.194 C 
ATOM     22  CBC VF1 A 407       1.239  18.158 -60.345  0.00  0.00    -0.474 C 
ATOM     23  CAC VF1 A 407       0.698  19.427 -61.040  0.00  0.00    +0.092 C 
ATOM     24  CAY VF1 A 407       2.706  17.902 -60.785  0.00  0.00    +0.511 C 
ENDROOT
BRANCH  24  25
ATOM     25  CAV VF1 A 407       3.782  18.863 -60.319  0.00  0.00    -0.218 A 
ATOM     26  CAJ VF1 A 407       4.105  19.911 -61.159  0.00  0.00    +0.016 A 
ATOM     27  CAH VF1 A 407       4.872  20.986 -60.704  0.00  0.00    -0.002 A 
ATOM     28  CAG VF1 A 407       5.345  20.991 -59.414  0.00  0.00    +0.017 A 
ATOM     29  CAI VF1 A 407       5.091  19.905 -58.584  0.00  0.00    -0.051 A 
ATOM     30  CAK VF1 A 407       4.327  18.841 -59.044  0.00  0.00    +0.120 A 
ENDBRANCH  24  25
BRANCH  17  31
ATOM     31  OAT VF1 A 407       0.816  16.776 -62.382  0.00  0.00    -0.660 OA
ATOM     32  CAA VF1 A 407       0.617  15.479 -63.035  0.00  0.00    +0.411 C 
ENDBRANCH  17  31
TORSDOF 2
