REMARK  Name = Output/Trash/CarfentanilSDF_ligand_intermediary.pdb
REMARK  10 active torsions:
REMARK  status: ('A' for Active; 'I' for Inactive)
REMARK    1  A    between atoms: O1_1  and  C7_12
REMARK    2  A    between atoms: O1_1  and  C16_21
REMARK    3  A    between atoms: N1_4  and  C6_11
REMARK    4  A    between atoms: N2_5  and  C1_6
REMARK    5  A    between atoms: N2_5  and  C8_13
REMARK    6  A    between atoms: C1_6  and  C7_12
REMARK    7  A    between atoms: C6_11  and  C9_14
REMARK    8  A    between atoms: C9_14  and  C12_17
REMARK    9  A    between atoms: C10_15  and  C11_16
REMARK   10  A    between atoms: C11_16  and  C15_20
REMARK                            x       y       z     vdW  Elec       q    Type
REMARK                         _______ _______ _______ _____ _____    ______ ____
ROOT
ATOM      1  N1  UNL     1       1.966  -1.082  -0.653  0.00  0.00    -0.626 NA
ATOM      2  C1  UNL     1      -0.865  -1.038   0.244  0.00  0.00    +0.807 C 
ATOM      3  C2  UNL     1      -0.320  -0.252  -0.989  0.00  0.00    -0.500 C 
ATOM      4  C3  UNL     1       0.333  -1.336   1.193  0.00  0.00    -0.403 C 
ATOM      5  C4  UNL     1       0.873  -0.961  -1.636  0.00  0.00    +0.435 C 
ATOM      6  C5  UNL     1       1.543  -1.946   0.465  0.00  0.00    +0.437 C 
ENDROOT
BRANCH   2   8
ATOM      7  O3  UNL     1      -2.462  -1.987   2.464  0.00  0.00    -0.790 OA
ATOM      8  N2  UNL     1      -1.887  -0.246   0.988  0.00  0.00    -1.606 N 
ATOM      9  C10 UNL     1      -2.772  -0.879   1.947  0.00  0.00    +1.930 C 
BRANCH   8  10
ATOM     10  C8  UNL     1      -1.879   1.193   0.951  0.00  0.00    +1.627 A 
ATOM     11  C13 UNL     1      -2.550   1.877  -0.074  0.00  0.00    -0.760 A 
ATOM     12  C14 UNL     1      -1.216   1.920   1.951  0.00  0.00    -0.882 A 
ATOM     13  C17 UNL     1      -2.542   3.275  -0.106  0.00  0.00    +0.440 A 
ATOM     14  C18 UNL     1      -1.209   3.317   1.916  0.00  0.00    +0.494 A 
ATOM     15  C21 UNL     1      -1.870   3.994   0.887  0.00  0.00    -0.404 A 
ENDBRANCH   8  10
BRANCH   9  16
ATOM     16  C11 UNL     1      -4.108  -0.280   2.294  0.00  0.00    -0.673 C 
ATOM     17  C15 UNL     1      -5.129  -0.596   1.207  0.00  0.00    +0.162 C 
ENDBRANCH   9  16
ENDBRANCH   2   8
BRANCH   2  19
ATOM     18  O2  UNL     1      -1.177  -3.446   0.152  0.00  0.00    -0.683 OA
ATOM     19  C7  UNL     1      -1.527  -2.310  -0.272  0.00  0.00    +1.357 C 
BRANCH  19  20
ATOM     20  O1  UNL     1      -2.579  -2.199  -1.187  0.00  0.00    -0.948 OA
ATOM     21  C16 UNL     1      -3.294  -3.328  -1.674  0.00  0.00    +0.364 C 
ENDBRANCH  19  20
ENDBRANCH   2  19
BRANCH   1  22
ATOM     22  C6  UNL     1       3.202  -1.596  -1.282  0.00  0.00    +0.436 C 
BRANCH  22  23
ATOM     23  C9  UNL     1       3.999  -0.458  -1.936  0.00  0.00    -0.551 C 
BRANCH  23  24
ATOM     24  C12 UNL     1       4.268   0.655  -0.956  0.00  0.00    +0.857 A 
ATOM     25  C19 UNL     1       3.392   1.752  -0.871  0.00  0.00    -0.349 A 
ATOM     26  C20 UNL     1       5.353   0.571  -0.069  0.00  0.00    -0.402 A 
ATOM     27  C22 UNL     1       3.610   2.755   0.077  0.00  0.00    +0.188 A 
ATOM     28  C23 UNL     1       5.569   1.579   0.876  0.00  0.00    +0.219 A 
ATOM     29  C24 UNL     1       4.699   2.670   0.949  0.00  0.00    -0.177 A 
ENDBRANCH  23  24
ENDBRANCH  22  23
ENDBRANCH   1  22
TORSDOF 8
