REMARK  Name = Output/Trash/HeroinSDF_ligand_intermediary.pdb
REMARK  7 active torsions:
REMARK  status: ('A' for Active; 'I' for Inactive)
REMARK    1  A    between atoms: N1_11  and  C17_21
REMARK    2  A    between atoms: C10_12  and  O3_17
REMARK    3  A    between atoms: C11_13  and  O2_16
REMARK    4  A    between atoms: O2_16  and  C18_22
REMARK    5  A    between atoms: O3_17  and  C20_25
REMARK    6  A    between atoms: C18_22  and  C19_23
REMARK    7  A    between atoms: C20_25  and  C21_26
REMARK                            x       y       z     vdW  Elec       q    Type
REMARK                         _______ _______ _______ _____ _____    ______ ____
ROOT
ATOM      1  C1  UNL     1      -1.015  -0.195   0.498  0.00  0.00    +0.732 C 
ATOM      2  C2  UNL     1       0.178  -1.002   0.122  0.00  0.00    -0.561 A 
ATOM      3  C3  UNL     1       1.316  -0.258   0.202  0.00  0.00    +0.364 A 
ATOM      4  C4  UNL     1      -0.400   1.250   0.576  0.00  0.00    -0.031 C 
ATOM      5  C5  UNL     1      -2.098  -0.386  -0.585  0.00  0.00    -0.605 C 
ATOM      6  O1  UNL     1       1.019   1.051   0.524  0.00  0.00    -0.538 OA
ATOM      7  C6  UNL     1      -2.422  -1.903  -0.654  0.00  0.00    +0.962 C 
ATOM      8  C7  UNL     1       0.150  -2.221  -0.553  0.00  0.00    +0.697 A 
ATOM      9  C8  UNL     1      -1.637   0.211  -1.894  0.00  0.00    +0.232 C 
ATOM     10  C9  UNL     1      -1.170  -2.773  -1.046  0.00  0.00    -0.653 C 
ATOM     11  N1  UNL     1      -3.023  -2.291   0.650  0.00  0.00    -0.639 NA
ATOM     12  C10 UNL     1      -0.855   2.171  -0.592  0.00  0.00    +0.841 C 
ATOM     13  C11 UNL     1       2.563  -0.788  -0.162  0.00  0.00    +0.816 A 
ATOM     14  C12 UNL     1      -1.021   1.403  -1.885  0.00  0.00    -0.368 C 
ATOM     15  C13 UNL     1      -1.568  -0.669   1.864  0.00  0.00    -0.517 C 
ATOM     16  C14 UNL     1      -2.106  -2.112   1.796  0.00  0.00    +0.557 C 
ATOM     17  C15 UNL     1       1.379  -2.782  -0.947  0.00  0.00    -0.191 A 
ATOM     18  C16 UNL     1       2.582  -2.079  -0.724  0.00  0.00    -0.280 A 
ATOM     19  C17 UNL     1      -3.622  -3.636   0.644  0.00  0.00    +0.061 C 
ENDROOT
BRANCH  13  20
ATOM     20  O2  UNL     1       3.759  -0.063  -0.060  0.00  0.00    -1.295 OA
BRANCH  20  21
ATOM     21  C18 UNL     1       4.022   0.914   0.908  0.00  0.00    +2.882 C 
ATOM     22  C19 UNL     1       5.182   1.832   0.721  0.00  0.00    -1.023 C 
ATOM     23  O4  UNL     1       3.354   0.967   1.976  0.00  0.00    -0.998 OA
ENDBRANCH  20  21
ENDBRANCH  13  20
BRANCH  12  24
ATOM     24  O3  UNL     1       0.083   3.228  -0.794  0.00  0.00    -1.299 OA
BRANCH  24  25
ATOM     25  C20 UNL     1       0.253   4.293   0.098  0.00  0.00    +2.903 C 
ATOM     26  C21 UNL     1       1.339   5.284  -0.144  0.00  0.00    -1.028 C 
ATOM     27  O5  UNL     1      -0.473   4.400   1.123  0.00  0.00    -1.022 OA
ENDBRANCH  24  25
ENDBRANCH  12  24
TORSDOF 4
