REMARK  Name = Output/Trash/HeroinMOL_ligand_intermediary.pdb
REMARK  7 active torsions:
REMARK  status: ('A' for Active; 'I' for Inactive)
REMARK    1  A    between atoms: N1_11  and  C17_21
REMARK    2  A    between atoms: C10_12  and  O3_17
REMARK    3  A    between atoms: C11_13  and  O2_16
REMARK    4  A    between atoms: O2_16  and  C18_22
REMARK    5  A    between atoms: O3_17  and  C20_25
REMARK    6  A    between atoms: C18_22  and  C19_23
REMARK    7  A    between atoms: C20_25  and  C21_26
REMARK                            x       y       z     vdW  Elec       q    Type
REMARK                         _______ _______ _______ _____ _____    ______ ____
ROOT
ATOM      1  C1  UNL     1      -1.030  -0.200   0.404  0.00  0.00    +0.730 C 
ATOM      2  C2  UNL     1       0.166  -1.006   0.031  0.00  0.00    -0.560 A 
ATOM      3  C3  UNL     1       1.308  -0.280   0.176  0.00  0.00    +0.363 A 
ATOM      4  C4  UNL     1      -0.402   1.233   0.558  0.00  0.00    -0.029 C 
ATOM      5  C5  UNL     1      -2.081  -0.335  -0.718  0.00  0.00    -0.604 C 
ATOM      6  O1  UNL     1       1.015   1.019   0.541  0.00  0.00    -0.538 OA
ATOM      7  C6  UNL     1      -2.420  -1.844  -0.858  0.00  0.00    +0.961 C 
ATOM      8  C7  UNL     1       0.145  -2.196  -0.692  0.00  0.00    +0.695 A 
ATOM      9  C8  UNL     1      -1.575   0.308  -1.988  0.00  0.00    +0.231 C 
ATOM     10  C9  UNL     1      -1.166  -2.712  -1.247  0.00  0.00    -0.651 C 
ATOM     11  N1  UNL     1      -3.064  -2.277   0.411  0.00  0.00    -0.638 NA
ATOM     12  C10 UNL     1      -0.812   2.205  -0.585  0.00  0.00    +0.838 C 
ATOM     13  C11 UNL     1       2.559  -0.809  -0.172  0.00  0.00    +0.819 A 
ATOM     14  C12 UNL     1      -0.947   1.491  -1.913  0.00  0.00    -0.366 C 
ATOM     15  C13 UNL     1      -1.629  -0.721   1.732  0.00  0.00    -0.516 C 
ATOM     16  C14 UNL     1      -2.181  -2.155   1.591  0.00  0.00    +0.556 C 
ATOM     17  C15 UNL     1       1.379  -2.756  -1.072  0.00  0.00    -0.190 A 
ATOM     18  C16 UNL     1       2.582  -2.077  -0.784  0.00  0.00    -0.281 A 
ATOM     19  C17 UNL     1      -3.678  -3.613   0.333  0.00  0.00    +0.061 C 
ENDROOT
BRANCH  13  20
ATOM     20  O2  UNL     1       3.759  -0.104  -0.005  0.00  0.00    -1.297 OA
BRANCH  20  21
ATOM     21  C18 UNL     1       4.004   0.831   1.008  0.00  0.00    +2.882 C 
ATOM     22  C19 UNL     1       5.178   1.742   0.894  0.00  0.00    -1.024 C 
ATOM     23  O4  UNL     1       3.304   0.850   2.057  0.00  0.00    -0.997 OA
ENDBRANCH  20  21
ENDBRANCH  13  20
BRANCH  12  24
ATOM     24  O3  UNL     1       0.144   3.258  -0.717  0.00  0.00    -1.298 OA
BRANCH  24  25
ATOM     25  C20 UNL     1       0.298   4.284   0.222  0.00  0.00    +2.901 C 
ATOM     26  C21 UNL     1       1.401   5.272   0.052  0.00  0.00    -1.027 C 
ATOM     27  O5  UNL     1      -0.458   4.359   1.228  0.00  0.00    -1.022 OA
ENDBRANCH  24  25
ENDBRANCH  12  24
TORSDOF 4
