REMARK  Name = Output/Trash/MethadoneSDF_ligand_intermediary.pdb
REMARK  11 active torsions:
REMARK  status: ('A' for Active; 'I' for Inactive)
REMARK    1  A    between atoms: C1_1  and  C2_2
REMARK    2  A    between atoms: C2_2  and  C3_3
REMARK    3  A    between atoms: C3_3  and  C4_4
REMARK    4  A    between atoms: C4_4  and  C5_5
REMARK    5  A    between atoms: C4_4  and  C6_7
REMARK    6  A    between atoms: C4_4  and  C7_8
REMARK    7  A    between atoms: C5_5  and  C18_19
REMARK    8  A    between atoms: C18_19  and  N1_20
REMARK    9  A    between atoms: C18_19  and  C19_21
REMARK   10  A    between atoms: N1_20  and  C20_22
REMARK   11  A    between atoms: N1_20  and  C21_23
REMARK                            x       y       z     vdW  Elec       q    Type
REMARK                         _______ _______ _______ _____ _____    ______ ____
ROOT
ATOM      1  C4  UNL     1      -0.355   0.234  -0.499  0.00  0.00    -0.536 C 
ENDROOT
BRANCH   1   2
ATOM      2  C6  UNL     1      -1.366   1.405  -0.383  0.00  0.00    +0.440 A 
ATOM      3  C8  UNL     1      -1.192   2.602  -1.119  0.00  0.00    -0.238 A 
ATOM      4  C9  UNL     1      -2.577   1.259   0.341  0.00  0.00    -0.275 A 
ATOM      5  C10 UNL     1      -2.139   3.628  -1.064  0.00  0.00    +0.112 A 
ATOM      6  C11 UNL     1      -3.518   2.289   0.391  0.00  0.00    +0.146 A 
ATOM      7  C12 UNL     1      -3.296   3.476  -0.304  0.00  0.00    -0.132 A 
ENDBRANCH   1   2
BRANCH   1   8
ATOM      8  C7  UNL     1      -0.424  -0.674   0.749  0.00  0.00    +0.426 A 
ATOM      9  C13 UNL     1      -0.349  -0.093   2.036  0.00  0.00    -0.136 A 
ATOM     10  C14 UNL     1      -0.430  -2.086   0.661  0.00  0.00    -0.334 A 
ATOM     11  C15 UNL     1      -0.342  -0.888   3.185  0.00  0.00    +0.083 A 
ATOM     12  C16 UNL     1      -0.426  -2.875   1.815  0.00  0.00    +0.161 A 
ATOM     13  C17 UNL     1      -0.387  -2.277   3.075  0.00  0.00    -0.125 A 
ENDBRANCH   1   8
BRANCH   1  14
ATOM     14  C3  UNL     1      -0.735  -0.515  -1.789  0.00  0.00    +1.172 C 
ATOM     15  O1  UNL     1       0.056  -0.585  -2.721  0.00  0.00    -0.581 OA
BRANCH  14  17
ATOM     16  C1  UNL     1      -2.922  -0.403  -3.003  0.00  0.00    +0.055 C 
ATOM     17  C2  UNL     1      -2.092  -1.156  -1.967  0.00  0.00    -0.330 C 
ENDBRANCH  14  17
ENDBRANCH   1  14
BRANCH   1  18
ATOM     18  C5  UNL     1       1.117   0.792  -0.591  0.00  0.00    -0.300 C 
BRANCH  18  19
ATOM     19  C18 UNL     1       2.258  -0.267  -0.489  0.00  0.00    +1.160 C 
ATOM     20  C19 UNL     1       3.536   0.238  -1.194  0.00  0.00    -0.472 C 
BRANCH  19  21
ATOM     21  N1  UNL     1       2.495  -0.675   0.925  0.00  0.00    -0.431 NA
ATOM     22  C20 UNL     1       3.058  -2.032   1.026  0.00  0.00    +0.055 C 
ATOM     23  C21 UNL     1       3.306   0.270   1.717  0.00  0.00    +0.081 C 
ENDBRANCH  19  21
ENDBRANCH  18  19
ENDBRANCH   1  18
TORSDOF 7
