REMARK  Name = Output/Trash/MethadoneMOL_ligand_intermediary.pdb
REMARK  11 active torsions:
REMARK  status: ('A' for Active; 'I' for Inactive)
REMARK    1  A    between atoms: C1_1  and  C2_2
REMARK    2  A    between atoms: C2_2  and  C3_3
REMARK    3  A    between atoms: C3_3  and  C4_4
REMARK    4  A    between atoms: C4_4  and  C5_5
REMARK    5  A    between atoms: C4_4  and  C6_7
REMARK    6  A    between atoms: C4_4  and  C7_8
REMARK    7  A    between atoms: C5_5  and  C18_19
REMARK    8  A    between atoms: C18_19  and  N1_20
REMARK    9  A    between atoms: C18_19  and  C19_21
REMARK   10  A    between atoms: N1_20  and  C20_22
REMARK   11  A    between atoms: N1_20  and  C21_23
REMARK                            x       y       z     vdW  Elec       q    Type
REMARK                         _______ _______ _______ _____ _____    ______ ____
ROOT
ATOM      1  C4  UNL     1      -0.273  -0.224   0.553  0.00  0.00    -0.539 C 
ENDROOT
BRANCH   1   2
ATOM      2  C6  UNL     1      -1.562  -1.085   0.608  0.00  0.00    +0.441 A 
ATOM      3  C8  UNL     1      -2.825  -0.536   0.270  0.00  0.00    -0.276 A 
ATOM      4  C9  UNL     1      -1.548  -2.396   1.143  0.00  0.00    -0.238 A 
ATOM      5  C10 UNL     1      -3.995  -1.290   0.383  0.00  0.00    +0.146 A 
ATOM      6  C11 UNL     1      -2.723  -3.144   1.253  0.00  0.00    +0.113 A 
ATOM      7  C12 UNL     1      -3.944  -2.595   0.865  0.00  0.00    -0.132 A 
ENDBRANCH   1   2
BRANCH   1   8
ATOM      8  C7  UNL     1      -0.393   0.872  -0.530  0.00  0.00    +0.427 A 
ATOM      9  C13 UNL     1      -0.796   0.516  -1.838  0.00  0.00    -0.137 A 
ATOM     10  C14 UNL     1       0.010   2.209  -0.303  0.00  0.00    -0.335 A 
ATOM     11  C15 UNL     1      -0.852   1.469  -2.857  0.00  0.00    +0.084 A 
ATOM     12  C16 UNL     1      -0.052   3.158  -1.328  0.00  0.00    +0.161 A 
ATOM     13  C17 UNL     1      -0.487   2.790  -2.601  0.00  0.00    -0.125 A 
ENDBRANCH   1   8
BRANCH   1  14
ATOM     14  C3  UNL     1      -0.106   0.364   1.965  0.00  0.00    +1.175 C 
ATOM     15  O1  UNL     1       0.875   0.086   2.641  0.00  0.00    -0.583 OA
BRANCH  14  17
ATOM     16  C1  UNL     1      -1.875   0.570   3.725  0.00  0.00    +0.055 C 
ATOM     17  C2  UNL     1      -1.150   1.269   2.579  0.00  0.00    -0.331 C 
ENDBRANCH  14  17
ENDBRANCH   1  14
BRANCH   1  18
ATOM     18  C5  UNL     1       0.967  -1.122   0.173  0.00  0.00    -0.300 C 
BRANCH  18  19
ATOM     19  C18 UNL     1       2.293  -0.362  -0.138  0.00  0.00    +1.160 C 
ATOM     20  C19 UNL     1       3.516  -1.268   0.127  0.00  0.00    -0.472 C 
BRANCH  19  21
ATOM     21  N1  UNL     1       2.280   0.211  -1.514  0.00  0.00    -0.430 NA
ATOM     22  C20 UNL     1       2.583  -0.752  -2.591  0.00  0.00    +0.081 C 
ATOM     23  C21 UNL     1       3.151   1.393  -1.632  0.00  0.00    +0.054 C 
ENDBRANCH  19  21
ENDBRANCH  18  19
ENDBRANCH   1  18
TORSDOF 7
