REMARK  Name = Output/Trash/Methadone_ligand_intermediary.pdb
REMARK  11 active torsions:
REMARK  status: ('A' for Active; 'I' for Inactive)
REMARK    1  A    between atoms: C1_1  and  N1_2
REMARK    2  A    between atoms: N1_2  and  C2_3
REMARK    3  A    between atoms: N1_2  and  C3_4
REMARK    4  A    between atoms: C3_4  and  C4_5
REMARK    5  A    between atoms: C3_4  and  C5_6
REMARK    6  A    between atoms: C5_6  and  C6_7
REMARK    7  A    between atoms: C6_7  and  C7_8
REMARK    8  A    between atoms: C6_7  and  C13_14
REMARK    9  A    between atoms: C6_7  and  C19_20
REMARK   10  A    between atoms: C19_20  and  C20_22
REMARK   11  A    between atoms: C20_22  and  C21_23
REMARK                            x       y       z     vdW  Elec       q    Type
REMARK                         _______ _______ _______ _____ _____    ______ ____
ROOT
ATOM      1  C6  UNL     1      -0.528  -0.090  -0.677  0.00  0.00    -0.503 C 
ENDROOT
BRANCH   1   2
ATOM      2  C7  UNL     1      -0.347   1.197   0.161  0.00  0.00    +0.415 A 
ATOM      3  C8  UNL     1      -0.223   2.450  -0.484  0.00  0.00    -0.280 A 
ATOM      4  C9  UNL     1       0.022   3.614   0.249  0.00  0.00    +0.139 A 
ATOM      5  C10 UNL     1       0.180   3.551   1.633  0.00  0.00    -0.124 A 
ATOM      6  C11 UNL     1       0.111   2.321   2.285  0.00  0.00    +0.107 A 
ATOM      7  C12 UNL     1      -0.133   1.152   1.558  0.00  0.00    -0.181 A 
ENDBRANCH   1   2
BRANCH   1   8
ATOM      8  C13 UNL     1      -1.154  -1.257   0.129  0.00  0.00    +0.388 A 
ATOM      9  C14 UNL     1      -2.235  -1.012   1.012  0.00  0.00    -0.270 A 
ATOM     10  C15 UNL     1      -2.866  -2.056   1.692  0.00  0.00    +0.133 A 
ATOM     11  C16 UNL     1      -2.459  -3.372   1.488  0.00  0.00    -0.113 A 
ATOM     12  C17 UNL     1      -1.428  -3.648   0.591  0.00  0.00    +0.087 A 
ATOM     13  C18 UNL     1      -0.793  -2.608  -0.094  0.00  0.00    -0.188 A 
ENDBRANCH   1   8
BRANCH   1  14
ATOM     14  C19 UNL     1      -1.503   0.161  -1.844  0.00  0.00    +1.167 C 
ATOM     15  O1  UNL     1      -1.262  -0.303  -2.951  0.00  0.00    -0.568 OA
BRANCH  14  16
ATOM     16  C20 UNL     1      -2.800   0.921  -1.671  0.00  0.00    -0.341 C 
ATOM     17  C21 UNL     1      -4.006   0.024  -1.937  0.00  0.00    +0.061 C 
ENDBRANCH  14  16
ENDBRANCH   1  14
BRANCH   1  18
ATOM     18  C5  UNL     1       0.890  -0.434  -1.269  0.00  0.00    -0.310 C 
BRANCH  18  19
ATOM     19  C3  UNL     1       2.007  -0.753  -0.230  0.00  0.00    +1.172 C 
ATOM     20  C4  UNL     1       3.081  -1.669  -0.853  0.00  0.00    -0.493 C 
BRANCH  19  22
ATOM     21  C1  UNL     1       3.558   1.191  -0.496  0.00  0.00    +0.086 C 
ATOM     22  N1  UNL     1       2.573   0.497   0.355  0.00  0.00    -0.428 NA
ATOM     23  C2  UNL     1       3.138   0.273   1.698  0.00  0.00    +0.044 C 
ENDBRANCH  19  22
ENDBRANCH  18  19
ENDBRANCH   1  18
TORSDOF 7
