REMARK  Name = Output/Trash/MorphineSDF_ligand_intermediary.pdb
REMARK  3 active torsions:
REMARK  status: ('A' for Active; 'I' for Inactive)
REMARK    1  A    between atoms: O2_2  and  C10_14
REMARK    2  A    between atoms: O3_3  and  C16_20
REMARK    3  A    between atoms: N1_4  and  C14_18
REMARK                            x       y       z     vdW  Elec       q    Type
REMARK                         _______ _______ _______ _____ _____    ______ ____
ROOT
ATOM      1  O1  UNL     1       2.577   0.697   0.638  0.00  0.00    -0.449 OA
ATOM      2  N1  UNL     1      -2.654   0.233   0.650  0.00  0.00    -0.644 NA
ATOM      3  C1  UNL     1       0.193   0.810   0.527  0.00  0.00    +0.651 C 
ATOM      4  C2  UNL     1      -0.769   1.121  -0.640  0.00  0.00    -0.615 C 
ATOM      5  C3  UNL     1      -1.894   0.050  -0.614  0.00  0.00    +0.961 C 
ATOM      6  C4  UNL     1       1.517   1.661   0.547  0.00  0.00    +0.075 C 
ATOM      7  C5  UNL     1      -0.579   0.899   1.865  0.00  0.00    -0.509 C 
ATOM      8  C6  UNL     1       0.730  -0.565   0.333  0.00  0.00    -0.625 A 
ATOM      9  C7  UNL     1      -1.344  -1.413  -0.802  0.00  0.00    -0.649 C 
ATOM     10  C8  UNL     1      -1.840   0.010   1.864  0.00  0.00    +0.547 C 
ATOM     11  C9  UNL     1       0.037  -1.637  -0.225  0.00  0.00    +0.652 A 
ATOM     12  C10 UNL     1       1.686   2.537  -0.723  0.00  0.00    +0.771 C 
ATOM     13  C11 UNL     1      -0.003   1.192  -1.941  0.00  0.00    +0.326 C 
ATOM     14  C12 UNL     1       2.086  -0.578   0.448  0.00  0.00    +0.450 A 
ATOM     15  C13 UNL     1       1.176   1.833  -1.966  0.00  0.00    -0.545 C 
ATOM     16  C14 UNL     1      -3.911  -0.531   0.697  0.00  0.00    +0.057 C 
ATOM     17  C15 UNL     1       0.741  -2.839  -0.433  0.00  0.00    -0.058 A 
ATOM     18  C16 UNL     1       2.820  -1.747   0.252  0.00  0.00    +0.912 A 
ATOM     19  C17 UNL     1       2.125  -2.904  -0.156  0.00  0.00    -0.558 A 
ENDROOT
BRANCH  12  20
ATOM     20  O2  UNL     1       3.034   2.893  -0.882  0.00  0.00    -1.004 OA
ATOM     21  H1  UNL     1       3.055   3.663  -1.508  0.00  0.00    +0.647 HD
ENDBRANCH  12  20
BRANCH  18  22
ATOM     22  O3  UNL     1       4.201  -1.751   0.424  0.00  0.00    -1.068 OA
ATOM     23  H2  UNL     1       4.748  -2.590   0.273  0.00  0.00    +0.674 HD
ENDBRANCH  18  22
TORSDOF 2
