REMARK  Name = Output/Trash/MorphineMOL_ligand_intermediary.pdb
REMARK  3 active torsions:
REMARK  status: ('A' for Active; 'I' for Inactive)
REMARK    1  A    between atoms: O2_2  and  C10_14
REMARK    2  A    between atoms: O3_3  and  C16_20
REMARK    3  A    between atoms: N1_4  and  C14_18
REMARK                            x       y       z     vdW  Elec       q    Type
REMARK                         _______ _______ _______ _____ _____    ______ ____
ROOT
ATOM      1  O1  UNL     1      -2.491   0.752  -0.875  0.00  0.00    -0.449 OA
ATOM      2  N1  UNL     1       2.704   0.110  -0.445  0.00  0.00    -0.642 NA
ATOM      3  C1  UNL     1      -0.120   0.789  -0.578  0.00  0.00    +0.650 C 
ATOM      4  C2  UNL     1       0.759   1.125   0.647  0.00  0.00    -0.616 C 
ATOM      5  C3  UNL     1       1.840   0.016   0.761  0.00  0.00    +0.961 C 
ATOM      6  C4  UNL     1      -1.406   1.683  -0.744  0.00  0.00    +0.076 C 
ATOM      7  C5  UNL     1       0.757   0.785  -1.853  0.00  0.00    -0.509 C 
ATOM      8  C6  UNL     1      -0.723  -0.556  -0.364  0.00  0.00    -0.625 A 
ATOM      9  C7  UNL     1       1.222  -1.416   0.973  0.00  0.00    -0.649 C 
ATOM     10  C8  UNL     1       1.979  -0.145  -1.709  0.00  0.00    +0.547 C 
ATOM     11  C9  UNL     1      -0.116  -1.622   0.297  0.00  0.00    +0.652 A 
ATOM     12  C10 UNL     1      -1.640   2.625   0.467  0.00  0.00    +0.769 C 
ATOM     13  C11 UNL     1      -0.104   1.285   1.878  0.00  0.00    +0.326 C 
ATOM     14  C12 UNL     1      -2.064  -0.528  -0.587  0.00  0.00    +0.450 A 
ATOM     15  C13 UNL     1      -1.256   1.966   1.778  0.00  0.00    -0.545 C 
ATOM     16  C14 UNL     1       3.931  -0.698  -0.355  0.00  0.00    +0.056 C 
ATOM     17  C15 UNL     1      -0.880  -2.787   0.503  0.00  0.00    -0.059 A 
ATOM     18  C16 UNL     1      -2.855  -1.660  -0.396  0.00  0.00    +0.910 A 
ATOM     19  C17 UNL     1      -2.239  -2.819   0.120  0.00  0.00    -0.556 A 
ENDROOT
BRANCH  12  20
ATOM     20  O2  UNL     1      -2.982   3.034   0.500  0.00  0.00    -1.002 OA
ATOM     21  H1  UNL     1      -3.023   3.835   1.086  0.00  0.00    +0.646 HD
ENDBRANCH  12  20
BRANCH  18  22
ATOM     22  O3  UNL     1      -4.218  -1.626  -0.678  0.00  0.00    -1.066 OA
ATOM     23  H2  UNL     1      -4.807  -2.438  -0.533  0.00  0.00    +0.673 HD
ENDBRANCH  18  22
TORSDOF 2
