MODEL 1
REMARK VINA RESULT:    -6.993      0.000      0.000
REMARK INTER + INTRA:         -10.727
REMARK INTER:                  -9.854
REMARK INTRA:                  -0.872
REMARK UNBOUND:                -0.872
REMARK  Name = Output/Trash/MethadoneMOL_ligand_intermediary.pdb
REMARK  11 active torsions:
REMARK  status: ('A' for Active; 'I' for Inactive)
REMARK    1  A    between atoms: C1_1  and  C2_2
REMARK    2  A    between atoms: C2_2  and  C3_3
REMARK    3  A    between atoms: C3_3  and  C4_4
REMARK    4  A    between atoms: C4_4  and  C5_5
REMARK    5  A    between atoms: C4_4  and  C6_7
REMARK    6  A    between atoms: C4_4  and  C7_8
REMARK    7  A    between atoms: C5_5  and  C18_19
REMARK    8  A    between atoms: C18_19  and  N1_20
REMARK    9  A    between atoms: C18_19  and  C19_21
REMARK   10  A    between atoms: N1_20  and  C20_22
REMARK   11  A    between atoms: N1_20  and  C21_23
REMARK                            x       y       z     vdW  Elec       q    Type
REMARK                         _______ _______ _______ _____ _____    ______ ____
ROOT
ATOM      1  C4  UNL     1     119.806 152.292 140.553  0.00  0.00    -0.539 C 
ENDROOT
BRANCH   1   2
ATOM      2  C6  UNL     1     120.883 153.043 139.728  0.00  0.00    +0.441 A 
ATOM      3  C8  UNL     1     122.175 153.288 140.259  0.00  0.00    -0.276 A 
ATOM      4  C9  UNL     1     120.570 153.644 138.484  0.00  0.00    -0.238 A 
ATOM      5  C10 UNL     1     123.124 154.022 139.544  0.00  0.00    +0.146 A 
ATOM      6  C11 UNL     1     121.525 154.377 137.775  0.00  0.00    +0.113 A 
ATOM      7  C12 UNL     1     122.804 154.558 138.300  0.00  0.00    -0.132 A 
ENDBRANCH   1   2
BRANCH   1   8
ATOM      8  C7  UNL     1     118.836 151.530 139.622  0.00  0.00    +0.427 A 
ATOM      9  C13 UNL     1     117.484 151.370 140.006  0.00  0.00    -0.137 A 
ATOM     10  C14 UNL     1     119.274 150.867 138.451  0.00  0.00    -0.335 A 
ATOM     11  C15 UNL     1     116.597 150.631 139.221  0.00  0.00    +0.084 A 
ATOM     12  C16 UNL     1     118.378 150.132 137.669  0.00  0.00    +0.161 A 
ATOM     13  C17 UNL     1     117.041 150.018 138.050  0.00  0.00    -0.125 A 
ENDBRANCH   1   8
BRANCH   1  14
ATOM     14  C3  UNL     1     120.582 151.349 141.489  0.00  0.00    +1.175 C 
ATOM     15  O1  UNL     1     121.452 150.612 141.045  0.00  0.00    -0.583 OA
BRANCH  14  17
ATOM     16  C1  UNL     1     119.166 150.269 143.249  0.00  0.00    +0.055 C 
ATOM     17  C2  UNL     1     120.282 151.272 142.968  0.00  0.00    -0.331 C 
ENDBRANCH  14  17
ENDBRANCH   1  14
BRANCH   1  18
ATOM     18  C5  UNL     1     118.943 153.318 141.386  0.00  0.00    -0.300 C 
BRANCH  18  19
ATOM     19  C18 UNL     1     119.547 154.747 141.548  0.00  0.00    +1.160 C 
ATOM     20  C19 UNL     1     118.689 155.790 140.798  0.00  0.00    -0.472 C 
BRANCH  19  21
ATOM     21  N1  UNL     1     119.756 155.088 142.984  0.00  0.00    -0.430 NA
ATOM     22  C20 UNL     1     121.126 154.863 143.484  0.00  0.00    +0.081 C 
ATOM     23  C21 UNL     1     118.781 154.418 143.861  0.00  0.00    +0.054 C 
ENDBRANCH  19  21
ENDBRANCH  18  19
ENDBRANCH   1  18
TORSDOF 7
ENDMDL
MODEL 2
REMARK VINA RESULT:    -6.776      1.451      4.832
REMARK INTER + INTRA:         -10.421
REMARK INTER:                 -10.188
REMARK INTRA:                  -0.233
REMARK UNBOUND:                -0.872
REMARK  Name = Output/Trash/MethadoneMOL_ligand_intermediary.pdb
REMARK  11 active torsions:
REMARK  status: ('A' for Active; 'I' for Inactive)
REMARK    1  A    between atoms: C1_1  and  C2_2
REMARK    2  A    between atoms: C2_2  and  C3_3
REMARK    3  A    between atoms: C3_3  and  C4_4
REMARK    4  A    between atoms: C4_4  and  C5_5
REMARK    5  A    between atoms: C4_4  and  C6_7
REMARK    6  A    between atoms: C4_4  and  C7_8
REMARK    7  A    between atoms: C5_5  and  C18_19
REMARK    8  A    between atoms: C18_19  and  N1_20
REMARK    9  A    between atoms: C18_19  and  C19_21
REMARK   10  A    between atoms: N1_20  and  C20_22
REMARK   11  A    between atoms: N1_20  and  C21_23
REMARK                            x       y       z     vdW  Elec       q    Type
REMARK                         _______ _______ _______ _____ _____    ______ ____
ROOT
ATOM      1  C4  UNL     1     119.749 152.417 140.522  0.00  0.00    -0.539 C 
ENDROOT
BRANCH   1   2
ATOM      2  C6  UNL     1     118.811 151.607 139.590  0.00  0.00    +0.441 A 
ATOM      3  C8  UNL     1     117.473 151.323 139.965  0.00  0.00    -0.276 A 
ATOM      4  C9  UNL     1     119.297 150.991 138.411  0.00  0.00    -0.238 A 
ATOM      5  C10 UNL     1     116.647 150.537 139.159  0.00  0.00    +0.146 A 
ATOM      6  C11 UNL     1     118.465 150.206 137.610  0.00  0.00    +0.113 A 
ATOM      7  C12 UNL     1     117.138 149.987 137.978  0.00  0.00    -0.132 A 
ENDBRANCH   1   2
BRANCH   1   8
ATOM      8  C7  UNL     1     120.881 153.087 139.709  0.00  0.00    +0.427 A 
ATOM      9  C13 UNL     1     122.199 153.088 140.223  0.00  0.00    -0.137 A 
ATOM     10  C14 UNL     1     120.633 153.818 138.524  0.00  0.00    -0.335 A 
ATOM     11  C15 UNL     1     123.233 153.740 139.548  0.00  0.00    +0.084 A 
ATOM     12  C16 UNL     1     121.674 154.466 137.852  0.00  0.00    +0.161 A 
ATOM     13  C17 UNL     1     122.972 154.422 138.360  0.00  0.00    -0.125 A 
ENDBRANCH   1   8
BRANCH   1  14
ATOM     14  C3  UNL     1     118.848 153.445 141.227  0.00  0.00    +1.175 C 
ATOM     15  O1  UNL     1     117.671 153.192 141.446  0.00  0.00    -0.583 OA
BRANCH  14  17
ATOM     16  C1  UNL     1     118.669 155.915 140.857  0.00  0.00    +0.055 C 
ATOM     17  C2  UNL     1     119.363 154.805 141.640  0.00  0.00    -0.331 C 
ENDBRANCH  14  17
ENDBRANCH   1  14
BRANCH   1  18
ATOM     18  C5  UNL     1     120.433 151.461 141.574  0.00  0.00    -0.300 C 
BRANCH  18  19
ATOM     19  C18 UNL     1     119.781 151.425 142.990  0.00  0.00    +1.160 C 
ATOM     20  C19 UNL     1     118.917 150.156 143.161  0.00  0.00    -0.472 C 
BRANCH  19  21
ATOM     21  N1  UNL     1     120.805 151.580 144.062  0.00  0.00    -0.430 NA
ATOM     22  C20 UNL     1     120.960 150.409 144.948  0.00  0.00    +0.081 C 
ATOM     23  C21 UNL     1     120.589 152.796 144.865  0.00  0.00    +0.054 C 
ENDBRANCH  19  21
ENDBRANCH  18  19
ENDBRANCH   1  18
TORSDOF 7
ENDMDL
MODEL 3
REMARK VINA RESULT:    -6.414      1.753      4.414
REMARK INTER + INTRA:          -9.911
REMARK INTER:                  -9.314
REMARK INTRA:                  -0.597
REMARK UNBOUND:                -0.872
REMARK  Name = Output/Trash/MethadoneMOL_ligand_intermediary.pdb
REMARK  11 active torsions:
REMARK  status: ('A' for Active; 'I' for Inactive)
REMARK    1  A    between atoms: C1_1  and  C2_2
REMARK    2  A    between atoms: C2_2  and  C3_3
REMARK    3  A    between atoms: C3_3  and  C4_4
REMARK    4  A    between atoms: C4_4  and  C5_5
REMARK    5  A    between atoms: C4_4  and  C6_7
REMARK    6  A    between atoms: C4_4  and  C7_8
REMARK    7  A    between atoms: C5_5  and  C18_19
REMARK    8  A    between atoms: C18_19  and  N1_20
REMARK    9  A    between atoms: C18_19  and  C19_21
REMARK   10  A    between atoms: N1_20  and  C20_22
REMARK   11  A    between atoms: N1_20  and  C21_23
REMARK                            x       y       z     vdW  Elec       q    Type
REMARK                         _______ _______ _______ _____ _____    ______ ____
ROOT
ATOM      1  C4  UNL     1     119.534 152.036 140.960  0.00  0.00    -0.539 C 
ENDROOT
BRANCH   1   2
ATOM      2  C6  UNL     1     119.582 151.194 142.262  0.00  0.00    +0.441 A 
ATOM      3  C8  UNL     1     118.477 150.401 142.662  0.00  0.00    -0.276 A 
ATOM      4  C9  UNL     1     120.662 151.306 143.171  0.00  0.00    -0.238 A 
ATOM      5  C10 UNL     1     118.492 149.694 143.867  0.00  0.00    +0.146 A 
ATOM      6  C11 UNL     1     120.670 150.597 144.374  0.00  0.00    +0.113 A 
ATOM      7  C12 UNL     1     119.590 149.785 144.718  0.00  0.00    -0.132 A 
ENDBRANCH   1   2
BRANCH   1   8
ATOM      8  C7  UNL     1     118.734 151.301 139.862  0.00  0.00    +0.427 A 
ATOM      9  C13 UNL     1     117.320 151.337 139.888  0.00  0.00    -0.137 A 
ATOM     10  C14 UNL     1     119.356 150.477 138.894  0.00  0.00    -0.335 A 
ATOM     11  C15 UNL     1     116.565 150.631 138.950  0.00  0.00    +0.084 A 
ATOM     12  C16 UNL     1     118.593 149.774 137.956  0.00  0.00    +0.161 A 
ATOM     13  C17 UNL     1     117.201 149.855 137.981  0.00  0.00    -0.125 A 
ENDBRANCH   1   8
BRANCH   1  14
ATOM     14  C3  UNL     1     118.889 153.376 141.356  0.00  0.00    +1.175 C 
ATOM     15  O1  UNL     1     118.795 154.284 140.542  0.00  0.00    -0.583 OA
BRANCH  14  17
ATOM     16  C1  UNL     1     119.234 154.686 143.462  0.00  0.00    +0.055 C 
ATOM     17  C2  UNL     1     118.384 153.633 142.758  0.00  0.00    -0.331 C 
ENDBRANCH  14  17
ENDBRANCH   1  14
BRANCH   1  18
ATOM     18  C5  UNL     1     120.992 152.263 140.403  0.00  0.00    -0.300 C 
BRANCH  18  19
ATOM     19  C18 UNL     1     121.300 153.688 139.848  0.00  0.00    +1.160 C 
ATOM     20  C19 UNL     1     122.284 154.434 140.776  0.00  0.00    -0.472 C 
BRANCH  19  21
ATOM     21  N1  UNL     1     121.764 153.630 138.433  0.00  0.00    -0.430 NA
ATOM     22  C20 UNL     1     122.766 154.649 138.066  0.00  0.00    +0.081 C 
ATOM     23  C21 UNL     1     120.642 153.657 137.479  0.00  0.00    +0.054 C 
ENDBRANCH  19  21
ENDBRANCH  18  19
ENDBRANCH   1  18
TORSDOF 7
ENDMDL
MODEL 4
REMARK VINA RESULT:    -6.373      1.802      5.066
REMARK INTER + INTRA:          -9.854
REMARK INTER:                  -9.186
REMARK INTRA:                  -0.667
REMARK UNBOUND:                -0.872
REMARK  Name = Output/Trash/MethadoneMOL_ligand_intermediary.pdb
REMARK  11 active torsions:
REMARK  status: ('A' for Active; 'I' for Inactive)
REMARK    1  A    between atoms: C1_1  and  C2_2
REMARK    2  A    between atoms: C2_2  and  C3_3
REMARK    3  A    between atoms: C3_3  and  C4_4
REMARK    4  A    between atoms: C4_4  and  C5_5
REMARK    5  A    between atoms: C4_4  and  C6_7
REMARK    6  A    between atoms: C4_4  and  C7_8
REMARK    7  A    between atoms: C5_5  and  C18_19
REMARK    8  A    between atoms: C18_19  and  N1_20
REMARK    9  A    between atoms: C18_19  and  C19_21
REMARK   10  A    between atoms: N1_20  and  C20_22
REMARK   11  A    between atoms: N1_20  and  C21_23
REMARK                            x       y       z     vdW  Elec       q    Type
REMARK                         _______ _______ _______ _____ _____    ______ ____
ROOT
ATOM      1  C4  UNL     1     120.394 154.088 141.145  0.00  0.00    -0.539 C 
ENDROOT
BRANCH   1   2
ATOM      2  C6  UNL     1     119.494 152.948 140.601  0.00  0.00    +0.441 A 
ATOM      3  C8  UNL     1     118.165 152.779 141.066  0.00  0.00    -0.276 A 
ATOM      4  C9  UNL     1     120.012 151.948 139.743  0.00  0.00    -0.238 A 
ATOM      5  C10 UNL     1     117.375 151.714 140.627  0.00  0.00    +0.146 A 
ATOM      6  C11 UNL     1     119.215 150.885 139.308  0.00  0.00    +0.113 A 
ATOM      7  C12 UNL     1     117.896 150.773 139.743  0.00  0.00    -0.132 A 
ENDBRANCH   1   2
BRANCH   1   8
ATOM      8  C7  UNL     1     121.567 154.367 140.178  0.00  0.00    +0.427 A 
ATOM      9  C13 UNL     1     122.807 154.807 140.698  0.00  0.00    -0.137 A 
ATOM     10  C14 UNL     1     121.416 154.326 138.772  0.00  0.00    -0.335 A 
ATOM     11  C15 UNL     1     123.867 155.131 139.849  0.00  0.00    +0.084 A 
ATOM     12  C16 UNL     1     122.484 154.649 137.929  0.00  0.00    +0.161 A 
ATOM     13  C17 UNL     1     123.708 155.046 138.466  0.00  0.00    -0.125 A 
ENDBRANCH   1   8
BRANCH   1  14
ATOM     14  C3  UNL     1     119.468 155.306 141.310  0.00  0.00    +1.175 C 
ATOM     15  O1  UNL     1     119.330 155.837 142.403  0.00  0.00    -0.583 OA
BRANCH  14  17
ATOM     16  C1  UNL     1     118.106 157.240 140.489  0.00  0.00    +0.055 C 
ATOM     17  C2  UNL     1     118.676 155.866 140.150  0.00  0.00    -0.331 C 
ENDBRANCH  14  17
ENDBRANCH   1  14
BRANCH   1  18
ATOM     18  C5  UNL     1     121.021 153.673 142.532  0.00  0.00    -0.300 C 
BRANCH  18  19
ATOM     19  C18 UNL     1     120.174 152.692 143.400  0.00  0.00    +1.160 C 
ATOM     20  C19 UNL     1     120.794 151.277 143.384  0.00  0.00    -0.472 C 
BRANCH  19  21
ATOM     21  N1  UNL     1     119.970 153.223 144.777  0.00  0.00    -0.430 NA
ATOM     22  C20 UNL     1     118.606 153.711 145.059  0.00  0.00    +0.081 C 
ATOM     23  C21 UNL     1     120.960 154.257 145.126  0.00  0.00    +0.054 C 
ENDBRANCH  19  21
ENDBRANCH  18  19
ENDBRANCH   1  18
TORSDOF 7
ENDMDL
MODEL 5
REMARK VINA RESULT:    -6.154      2.408      4.793
REMARK INTER + INTRA:          -9.545
REMARK INTER:                  -8.669
REMARK INTRA:                  -0.876
REMARK UNBOUND:                -0.872
REMARK  Name = Output/Trash/MethadoneMOL_ligand_intermediary.pdb
REMARK  11 active torsions:
REMARK  status: ('A' for Active; 'I' for Inactive)
REMARK    1  A    between atoms: C1_1  and  C2_2
REMARK    2  A    between atoms: C2_2  and  C3_3
REMARK    3  A    between atoms: C3_3  and  C4_4
REMARK    4  A    between atoms: C4_4  and  C5_5
REMARK    5  A    between atoms: C4_4  and  C6_7
REMARK    6  A    between atoms: C4_4  and  C7_8
REMARK    7  A    between atoms: C5_5  and  C18_19
REMARK    8  A    between atoms: C18_19  and  N1_20
REMARK    9  A    between atoms: C18_19  and  C19_21
REMARK   10  A    between atoms: N1_20  and  C20_22
REMARK   11  A    between atoms: N1_20  and  C21_23
REMARK                            x       y       z     vdW  Elec       q    Type
REMARK                         _______ _______ _______ _____ _____    ______ ____
ROOT
ATOM      1  C4  UNL     1     119.378 152.392 143.398  0.00  0.00    -0.539 C 
ENDROOT
BRANCH   1   2
ATOM      2  C6  UNL     1     120.147 151.445 144.356  0.00  0.00    +0.441 A 
ATOM      3  C8  UNL     1     119.725 150.107 144.558  0.00  0.00    -0.276 A 
ATOM      4  C9  UNL     1     121.198 151.924 145.175  0.00  0.00    -0.238 A 
ATOM      5  C10 UNL     1     120.377 149.273 145.470  0.00  0.00    +0.146 A 
ATOM      6  C11 UNL     1     121.844 151.084 146.086  0.00  0.00    +0.113 A 
ATOM      7  C12 UNL     1     121.440 149.758 146.227  0.00  0.00    -0.132 A 
ENDBRANCH   1   2
BRANCH   1   8
ATOM      8  C7  UNL     1     118.971 151.650 142.105  0.00  0.00    +0.427 A 
ATOM      9  C13 UNL     1     119.926 150.857 141.428  0.00  0.00    -0.137 A 
ATOM     10  C14 UNL     1     117.709 151.832 141.492  0.00  0.00    -0.335 A 
ATOM     11  C15 UNL     1     119.612 150.226 140.223  0.00  0.00    +0.084 A 
ATOM     12  C16 UNL     1     117.401 151.194 140.287  0.00  0.00    +0.161 A 
ATOM     13  C17 UNL     1     118.349 150.388 139.656  0.00  0.00    -0.125 A 
ENDBRANCH   1   8
BRANCH   1  14
ATOM     14  C3  UNL     1     118.159 152.889 144.196  0.00  0.00    +1.175 C 
ATOM     15  O1  UNL     1     117.915 154.085 144.275  0.00  0.00    -0.583 OA
BRANCH  14  17
ATOM     16  C1  UNL     1     117.205 152.259 146.423  0.00  0.00    +0.055 C 
ATOM     17  C2  UNL     1     117.247 151.935 144.933  0.00  0.00    -0.331 C 
ENDBRANCH  14  17
ENDBRANCH   1  14
BRANCH   1  18
ATOM     18  C5  UNL     1     120.296 153.602 142.973  0.00  0.00    -0.300 C 
BRANCH  18  19
ATOM     19  C18 UNL     1     119.928 154.301 141.628  0.00  0.00    +1.160 C 
ATOM     20  C19 UNL     1     119.581 155.789 141.864  0.00  0.00    -0.472 C 
BRANCH  19  21
ATOM     21  N1  UNL     1     120.994 154.107 140.605  0.00  0.00    -0.430 NA
ATOM     22  C20 UNL     1     122.272 154.783 140.903  0.00  0.00    +0.081 C 
ATOM     23  C21 UNL     1     120.537 154.463 139.251  0.00  0.00    +0.054 C 
ENDBRANCH  19  21
ENDBRANCH  18  19
ENDBRANCH   1  18
TORSDOF 7
ENDMDL
MODEL 6
REMARK VINA RESULT:    -6.139      2.057      5.022
REMARK INTER + INTRA:          -9.523
REMARK INTER:                  -8.536
REMARK INTRA:                  -0.988
REMARK UNBOUND:                -0.872
REMARK  Name = Output/Trash/MethadoneMOL_ligand_intermediary.pdb
REMARK  11 active torsions:
REMARK  status: ('A' for Active; 'I' for Inactive)
REMARK    1  A    between atoms: C1_1  and  C2_2
REMARK    2  A    between atoms: C2_2  and  C3_3
REMARK    3  A    between atoms: C3_3  and  C4_4
REMARK    4  A    between atoms: C4_4  and  C5_5
REMARK    5  A    between atoms: C4_4  and  C6_7
REMARK    6  A    between atoms: C4_4  and  C7_8
REMARK    7  A    between atoms: C5_5  and  C18_19
REMARK    8  A    between atoms: C18_19  and  N1_20
REMARK    9  A    between atoms: C18_19  and  C19_21
REMARK   10  A    between atoms: N1_20  and  C20_22
REMARK   11  A    between atoms: N1_20  and  C21_23
REMARK                            x       y       z     vdW  Elec       q    Type
REMARK                         _______ _______ _______ _____ _____    ______ ____
ROOT
ATOM      1  C4  UNL     1     119.741 154.269 141.735  0.00  0.00    -0.539 C 
ENDROOT
BRANCH   1   2
ATOM      2  C6  UNL     1     119.074 152.874 141.856  0.00  0.00    +0.441 A 
ATOM      3  C8  UNL     1     119.422 151.984 142.904  0.00  0.00    -0.276 A 
ATOM      4  C9  UNL     1     118.216 152.379 140.844  0.00  0.00    -0.238 A 
ATOM      5  C10 UNL     1     118.872 150.702 142.976  0.00  0.00    +0.146 A 
ATOM      6  C11 UNL     1     117.671 151.095 140.923  0.00  0.00    +0.113 A 
ATOM      7  C12 UNL     1     117.991 150.261 141.993  0.00  0.00    -0.132 A 
ENDBRANCH   1   2
BRANCH   1   8
ATOM      8  C7  UNL     1     120.734 154.300 140.552  0.00  0.00    +0.427 A 
ATOM      9  C13 UNL     1     122.094 154.604 140.793  0.00  0.00    -0.137 A 
ATOM     10  C14 UNL     1     120.316 154.164 139.207  0.00  0.00    -0.335 A 
ATOM     11  C15 UNL     1     123.006 154.705 139.741  0.00  0.00    +0.084 A 
ATOM     12  C16 UNL     1     121.236 154.263 138.159  0.00  0.00    +0.161 A 
ATOM     13  C17 UNL     1     122.579 154.528 138.425  0.00  0.00    -0.125 A 
ENDBRANCH   1   8
BRANCH   1  14
ATOM     14  C3  UNL     1     118.584 155.268 141.555  0.00  0.00    +1.175 C 
ATOM     15  O1  UNL     1     117.431 154.929 141.784  0.00  0.00    -0.583 OA
BRANCH  14  17
ATOM     16  C1  UNL     1     117.918 156.999 139.873  0.00  0.00    +0.055 C 
ATOM     17  C2  UNL     1     118.819 156.677 141.061  0.00  0.00    -0.331 C 
ENDBRANCH  14  17
ENDBRANCH   1  14
BRANCH   1  18
ATOM     18  C5  UNL     1     120.561 154.597 143.042  0.00  0.00    -0.300 C 
BRANCH  18  19
ATOM     19  C18 UNL     1     119.864 155.541 144.069  0.00  0.00    +1.160 C 
ATOM     20  C19 UNL     1     119.235 154.725 145.221  0.00  0.00    -0.472 C 
BRANCH  19  21
ATOM     21  N1  UNL     1     120.794 156.603 144.548  0.00  0.00    -0.430 NA
ATOM     22  C20 UNL     1     120.436 157.974 144.136  0.00  0.00    +0.081 C 
ATOM     23  C21 UNL     1     122.194 156.316 144.193  0.00  0.00    +0.054 C 
ENDBRANCH  19  21
ENDBRANCH  18  19
ENDBRANCH   1  18
TORSDOF 7
ENDMDL
MODEL 7
REMARK VINA RESULT:    -5.729      1.600      4.518
REMARK INTER + INTRA:          -8.946
REMARK INTER:                  -8.243
REMARK INTRA:                  -0.703
REMARK UNBOUND:                -0.872
REMARK  Name = Output/Trash/MethadoneMOL_ligand_intermediary.pdb
REMARK  11 active torsions:
REMARK  status: ('A' for Active; 'I' for Inactive)
REMARK    1  A    between atoms: C1_1  and  C2_2
REMARK    2  A    between atoms: C2_2  and  C3_3
REMARK    3  A    between atoms: C3_3  and  C4_4
REMARK    4  A    between atoms: C4_4  and  C5_5
REMARK    5  A    between atoms: C4_4  and  C6_7
REMARK    6  A    between atoms: C4_4  and  C7_8
REMARK    7  A    between atoms: C5_5  and  C18_19
REMARK    8  A    between atoms: C18_19  and  N1_20
REMARK    9  A    between atoms: C18_19  and  C19_21
REMARK   10  A    between atoms: N1_20  and  C20_22
REMARK   11  A    between atoms: N1_20  and  C21_23
REMARK                            x       y       z     vdW  Elec       q    Type
REMARK                         _______ _______ _______ _____ _____    ______ ____
ROOT
ATOM      1  C4  UNL     1     119.378 153.392 141.189  0.00  0.00    -0.539 C 
ENDROOT
BRANCH   1   2
ATOM      2  C6  UNL     1     119.876 152.790 142.529  0.00  0.00    +0.441 A 
ATOM      3  C8  UNL     1     120.487 151.511 142.575  0.00  0.00    -0.276 A 
ATOM      4  C9  UNL     1     119.602 153.422 143.766  0.00  0.00    -0.238 A 
ATOM      5  C10 UNL     1     120.876 150.939 143.789  0.00  0.00    +0.146 A 
ATOM      6  C11 UNL     1     119.994 152.844 144.975  0.00  0.00    +0.113 A 
ATOM      7  C12 UNL     1     120.639 151.608 144.987  0.00  0.00    -0.132 A 
ENDBRANCH   1   2
BRANCH   1   8
ATOM      8  C7  UNL     1     120.569 153.852 140.319  0.00  0.00    +0.427 A 
ATOM      9  C13 UNL     1     120.377 154.068 138.934  0.00  0.00    -0.137 A 
ATOM     10  C14 UNL     1     121.887 153.945 140.826  0.00  0.00    -0.335 A 
ATOM     11  C15 UNL     1     121.445 154.420 138.107  0.00  0.00    +0.084 A 
ATOM     12  C16 UNL     1     122.950 154.301 139.991  0.00  0.00    +0.161 A 
ATOM     13  C17 UNL     1     122.729 154.544 138.636  0.00  0.00    -0.125 A 
ENDBRANCH   1   8
BRANCH   1  14
ATOM     14  C3  UNL     1     118.556 152.279 140.514  0.00  0.00    +1.175 C 
ATOM     15  O1  UNL     1     117.437 152.001 140.922  0.00  0.00    -0.583 OA
BRANCH  14  17
ATOM     16  C1  UNL     1     119.008 149.977 139.641  0.00  0.00    +0.055 C 
ATOM     17  C2  UNL     1     119.105 151.473 139.359  0.00  0.00    -0.331 C 
ENDBRANCH  14  17
ENDBRANCH   1  14
BRANCH   1  18
ATOM     18  C5  UNL     1     118.481 154.660 141.461  0.00  0.00    -0.300 C 
BRANCH  18  19
ATOM     19  C18 UNL     1     119.118 156.039 141.106  0.00  0.00    +1.160 C 
ATOM     20  C19 UNL     1     118.243 156.798 140.084  0.00  0.00    -0.472 C 
BRANCH  19  21
ATOM     21  N1  UNL     1     119.406 156.836 142.332  0.00  0.00    -0.430 NA
ATOM     22  C20 UNL     1     119.187 158.289 142.194  0.00  0.00    +0.081 C 
ATOM     23  C21 UNL     1     120.756 156.575 142.860  0.00  0.00    +0.054 C 
ENDBRANCH  19  21
ENDBRANCH  18  19
ENDBRANCH   1  18
TORSDOF 7
ENDMDL
MODEL 8
REMARK VINA RESULT:    -5.201     20.393     22.284
REMARK INTER + INTRA:          -8.201
REMARK INTER:                  -7.090
REMARK INTRA:                  -1.111
REMARK UNBOUND:                -0.872
REMARK  Name = Output/Trash/MethadoneMOL_ligand_intermediary.pdb
REMARK  11 active torsions:
REMARK  status: ('A' for Active; 'I' for Inactive)
REMARK    1  A    between atoms: C1_1  and  C2_2
REMARK    2  A    between atoms: C2_2  and  C3_3
REMARK    3  A    between atoms: C3_3  and  C4_4
REMARK    4  A    between atoms: C4_4  and  C5_5
REMARK    5  A    between atoms: C4_4  and  C6_7
REMARK    6  A    between atoms: C4_4  and  C7_8
REMARK    7  A    between atoms: C5_5  and  C18_19
REMARK    8  A    between atoms: C18_19  and  N1_20
REMARK    9  A    between atoms: C18_19  and  C19_21
REMARK   10  A    between atoms: N1_20  and  C20_22
REMARK   11  A    between atoms: N1_20  and  C21_23
REMARK                            x       y       z     vdW  Elec       q    Type
REMARK                         _______ _______ _______ _____ _____    ______ ____
ROOT
ATOM      1  C4  UNL     1     127.727 132.310 138.137  0.00  0.00    -0.539 C 
ENDROOT
BRANCH   1   2
ATOM      2  C6  UNL     1     126.758 131.562 137.185  0.00  0.00    +0.441 A 
ATOM      3  C8  UNL     1     126.066 130.399 137.610  0.00  0.00    -0.276 A 
ATOM      4  C9  UNL     1     126.649 131.918 135.819  0.00  0.00    -0.238 A 
ATOM      5  C10 UNL     1     125.245 129.686 136.734  0.00  0.00    +0.146 A 
ATOM      6  C11 UNL     1     125.825 131.199 134.949  0.00  0.00    +0.113 A 
ATOM      7  C12 UNL     1     125.117 130.090 135.408  0.00  0.00    -0.132 A 
ENDBRANCH   1   2
BRANCH   1   8
ATOM      8  C7  UNL     1     126.943 133.207 139.122  0.00  0.00    +0.427 A 
ATOM      9  C13 UNL     1     125.537 133.084 139.205  0.00  0.00    -0.137 A 
ATOM     10  C14 UNL     1     127.562 134.245 139.858  0.00  0.00    -0.335 A 
ATOM     11  C15 UNL     1     124.791 133.923 140.035  0.00  0.00    +0.084 A 
ATOM     12  C16 UNL     1     126.807 135.079 140.689  0.00  0.00    +0.161 A 
ATOM     13  C17 UNL     1     125.426 134.915 140.782  0.00  0.00    -0.125 A 
ENDBRANCH   1   8
BRANCH   1  14
ATOM     14  C3  UNL     1     128.531 131.213 138.857  0.00  0.00    +1.175 C 
ATOM     15  O1  UNL     1     129.087 130.331 138.218  0.00  0.00    -0.583 OA
BRANCH  14  17
ATOM     16  C1  UNL     1     127.690 130.115 140.945  0.00  0.00    +0.055 C 
ATOM     17  C2  UNL     1     128.636 131.163 140.365  0.00  0.00    -0.331 C 
ENDBRANCH  14  17
ENDBRANCH   1  14
BRANCH   1  18
ATOM     18  C5  UNL     1     128.686 133.251 137.310  0.00  0.00    -0.300 C 
BRANCH  18  19
ATOM     19  C18 UNL     1     130.213 132.968 137.452  0.00  0.00    +1.160 C 
ATOM     20  C19 UNL     1     130.828 132.591 136.086  0.00  0.00    -0.472 C 
BRANCH  19  21
ATOM     21  N1  UNL     1     130.916 134.105 138.113  0.00  0.00    -0.430 NA
ATOM     22  C20 UNL     1     132.158 134.541 137.444  0.00  0.00    +0.081 C 
ATOM     23  C21 UNL     1     131.174 133.845 139.540  0.00  0.00    +0.054 C 
ENDBRANCH  19  21
ENDBRANCH  18  19
ENDBRANCH   1  18
TORSDOF 7
ENDMDL
MODEL 9
REMARK VINA RESULT:    -5.004      3.546      5.284
REMARK INTER + INTRA:          -7.925
REMARK INTER:                  -6.870
REMARK INTRA:                  -1.054
REMARK UNBOUND:                -0.872
REMARK  Name = Output/Trash/MethadoneMOL_ligand_intermediary.pdb
REMARK  11 active torsions:
REMARK  status: ('A' for Active; 'I' for Inactive)
REMARK    1  A    between atoms: C1_1  and  C2_2
REMARK    2  A    between atoms: C2_2  and  C3_3
REMARK    3  A    between atoms: C3_3  and  C4_4
REMARK    4  A    between atoms: C4_4  and  C5_5
REMARK    5  A    between atoms: C4_4  and  C6_7
REMARK    6  A    between atoms: C4_4  and  C7_8
REMARK    7  A    between atoms: C5_5  and  C18_19
REMARK    8  A    between atoms: C18_19  and  N1_20
REMARK    9  A    between atoms: C18_19  and  C19_21
REMARK   10  A    between atoms: N1_20  and  C20_22
REMARK   11  A    between atoms: N1_20  and  C21_23
REMARK                            x       y       z     vdW  Elec       q    Type
REMARK                         _______ _______ _______ _____ _____    ______ ____
ROOT
ATOM      1  C4  UNL     1     121.098 155.568 143.900  0.00  0.00    -0.539 C 
ENDROOT
BRANCH   1   2
ATOM      2  C6  UNL     1     122.645 155.484 143.971  0.00  0.00    +0.441 A 
ATOM      3  C8  UNL     1     123.308 155.183 145.188  0.00  0.00    -0.276 A 
ATOM      4  C9  UNL     1     123.453 155.854 142.869  0.00  0.00    -0.238 A 
ATOM      5  C10 UNL     1     124.702 155.173 145.269  0.00  0.00    +0.146 A 
ATOM      6  C11 UNL     1     124.847 155.842 142.958  0.00  0.00    +0.113 A 
ATOM      7  C12 UNL     1     125.471 155.492 144.154  0.00  0.00    -0.132 A 
ENDBRANCH   1   2
BRANCH   1   8
ATOM      8  C7  UNL     1     120.610 155.447 142.439  0.00  0.00    +0.427 A 
ATOM      9  C13 UNL     1     119.310 155.890 142.101  0.00  0.00    -0.137 A 
ATOM     10  C14 UNL     1     121.365 154.788 141.440  0.00  0.00    -0.335 A 
ATOM     11  C15 UNL     1     118.813 155.736 140.805  0.00  0.00    +0.084 A 
ATOM     12  C16 UNL     1     120.861 154.640 140.144  0.00  0.00    +0.161 A 
ATOM     13  C17 UNL     1     119.590 155.118 139.826  0.00  0.00    -0.125 A 
ENDBRANCH   1   8
BRANCH   1  14
ATOM     14  C3  UNL     1     120.579 154.424 144.788  0.00  0.00    +1.175 C 
ATOM     15  O1  UNL     1     120.084 154.662 145.881  0.00  0.00    -0.583 OA
BRANCH  14  17
ATOM     16  C1  UNL     1     121.140 152.099 145.531  0.00  0.00    +0.055 C 
ATOM     17  C2  UNL     1     120.691 152.976 144.366  0.00  0.00    -0.331 C 
ENDBRANCH  14  17
ENDBRANCH   1  14
BRANCH   1  18
ATOM     18  C5  UNL     1     120.603 156.964 144.444  0.00  0.00    -0.300 C 
BRANCH  18  19
ATOM     19  C18 UNL     1     121.415 158.209 143.974  0.00  0.00    +1.160 C 
ATOM     20  C19 UNL     1     120.520 159.168 143.158  0.00  0.00    -0.472 C 
BRANCH  19  21
ATOM     21  N1  UNL     1     122.093 158.879 145.120  0.00  0.00    -0.430 NA
ATOM     22  C20 UNL     1     123.565 158.937 145.025  0.00  0.00    +0.081 C 
ATOM     23  C21 UNL     1     121.692 158.303 146.416  0.00  0.00    +0.054 C 
ENDBRANCH  19  21
ENDBRANCH  18  19
ENDBRANCH   1  18
TORSDOF 7
ENDMDL
