MODEL 1
REMARK VINA RESULT:    -7.016      0.000      0.000
REMARK INTER + INTRA:         -10.742
REMARK INTER:                  -9.887
REMARK INTRA:                  -0.854
REMARK UNBOUND:                -0.854
REMARK  Name = Output/Trash/MethadoneSDF_ligand_intermediary.pdb
REMARK  11 active torsions:
REMARK  status: ('A' for Active; 'I' for Inactive)
REMARK    1  A    between atoms: C1_1  and  C2_2
REMARK    2  A    between atoms: C2_2  and  C3_3
REMARK    3  A    between atoms: C3_3  and  C4_4
REMARK    4  A    between atoms: C4_4  and  C5_5
REMARK    5  A    between atoms: C4_4  and  C6_7
REMARK    6  A    between atoms: C4_4  and  C7_8
REMARK    7  A    between atoms: C5_5  and  C18_19
REMARK    8  A    between atoms: C18_19  and  N1_20
REMARK    9  A    between atoms: C18_19  and  C19_21
REMARK   10  A    between atoms: N1_20  and  C20_22
REMARK   11  A    between atoms: N1_20  and  C21_23
REMARK                            x       y       z     vdW  Elec       q    Type
REMARK                         _______ _______ _______ _____ _____    ______ ____
ROOT
ATOM      1  C4  UNL     1     119.861 152.339 140.534  0.00  0.00    -0.536 C 
ENDROOT
BRANCH   1   2
ATOM      2  C6  UNL     1     120.934 153.097 139.709  0.00  0.00    +0.440 A 
ATOM      3  C8  UNL     1     120.633 153.646 138.439  0.00  0.00    -0.238 A 
ATOM      4  C9  UNL     1     122.204 153.402 140.262  0.00  0.00    -0.275 A 
ATOM      5  C10 UNL     1     121.581 154.386 137.728  0.00  0.00    +0.112 A 
ATOM      6  C11 UNL     1     123.146 154.142 139.546  0.00  0.00    +0.146 A 
ATOM      7  C12 UNL     1     122.839 154.627 138.276  0.00  0.00    -0.132 A 
ENDBRANCH   1   2
BRANCH   1   8
ATOM      8  C7  UNL     1     118.908 151.556 139.603  0.00  0.00    +0.426 A 
ATOM      9  C13 UNL     1     117.566 151.348 139.998  0.00  0.00    -0.136 A 
ATOM     10  C14 UNL     1     119.355 150.920 138.421  0.00  0.00    -0.334 A 
ATOM     11  C15 UNL     1     116.695 150.589 139.213  0.00  0.00    +0.083 A 
ATOM     12  C16 UNL     1     118.476 150.165 137.639  0.00  0.00    +0.161 A 
ATOM     13  C17 UNL     1     117.147 150.004 138.032  0.00  0.00    -0.125 A 
ENDBRANCH   1   8
BRANCH   1  14
ATOM     14  C3  UNL     1     120.645 151.413 141.481  0.00  0.00    +1.172 C 
ATOM     15  O1  UNL     1     121.461 150.616 141.035  0.00  0.00    -0.581 OA
BRANCH  14  17
ATOM     16  C1  UNL     1     119.342 150.419 143.374  0.00  0.00    +0.055 C 
ATOM     17  C2  UNL     1     120.418 151.425 142.975  0.00  0.00    -0.330 C 
ENDBRANCH  14  17
ENDBRANCH   1  14
BRANCH   1  18
ATOM     18  C5  UNL     1     118.981 153.359 141.353  0.00  0.00    -0.300 C 
BRANCH  18  19
ATOM     19  C18 UNL     1     119.555 154.804 141.486  0.00  0.00    +1.160 C 
ATOM     20  C19 UNL     1     118.697 155.807 140.684  0.00  0.00    -0.472 C 
BRANCH  19  21
ATOM     21  N1  UNL     1     119.721 155.192 142.916  0.00  0.00    -0.431 NA
ATOM     22  C20 UNL     1     118.791 154.470 143.800  0.00  0.00    +0.055 C 
ATOM     23  C21 UNL     1     121.099 155.085 143.433  0.00  0.00    +0.081 C 
ENDBRANCH  19  21
ENDBRANCH  18  19
ENDBRANCH   1  18
TORSDOF 7
ENDMDL
MODEL 2
REMARK VINA RESULT:    -6.807      1.476      4.850
REMARK INTER + INTRA:         -10.447
REMARK INTER:                 -10.209
REMARK INTRA:                  -0.238
REMARK UNBOUND:                -0.854
REMARK  Name = Output/Trash/MethadoneSDF_ligand_intermediary.pdb
REMARK  11 active torsions:
REMARK  status: ('A' for Active; 'I' for Inactive)
REMARK    1  A    between atoms: C1_1  and  C2_2
REMARK    2  A    between atoms: C2_2  and  C3_3
REMARK    3  A    between atoms: C3_3  and  C4_4
REMARK    4  A    between atoms: C4_4  and  C5_5
REMARK    5  A    between atoms: C4_4  and  C6_7
REMARK    6  A    between atoms: C4_4  and  C7_8
REMARK    7  A    between atoms: C5_5  and  C18_19
REMARK    8  A    between atoms: C18_19  and  N1_20
REMARK    9  A    between atoms: C18_19  and  C19_21
REMARK   10  A    between atoms: N1_20  and  C20_22
REMARK   11  A    between atoms: N1_20  and  C21_23
REMARK                            x       y       z     vdW  Elec       q    Type
REMARK                         _______ _______ _______ _____ _____    ______ ____
ROOT
ATOM      1  C4  UNL     1     119.722 152.368 140.526  0.00  0.00    -0.536 C 
ENDROOT
BRANCH   1   2
ATOM      2  C6  UNL     1     118.800 151.559 139.577  0.00  0.00    +0.440 A 
ATOM      3  C8  UNL     1     119.305 150.955 138.400  0.00  0.00    -0.238 A 
ATOM      4  C9  UNL     1     117.459 151.264 139.933  0.00  0.00    -0.275 A 
ATOM      5  C10 UNL     1     118.487 150.170 137.583  0.00  0.00    +0.112 A 
ATOM      6  C11 UNL     1     116.649 150.480 139.110  0.00  0.00    +0.146 A 
ATOM      7  C12 UNL     1     117.159 149.940 137.932  0.00  0.00    -0.132 A 
ENDBRANCH   1   2
BRANCH   1   8
ATOM      8  C7  UNL     1     120.849 153.065 139.731  0.00  0.00    +0.426 A 
ATOM      9  C13 UNL     1     122.168 153.055 140.241  0.00  0.00    -0.136 A 
ATOM     10  C14 UNL     1     120.597 153.830 138.569  0.00  0.00    -0.334 A 
ATOM     11  C15 UNL     1     123.199 153.730 139.584  0.00  0.00    +0.083 A 
ATOM     12  C16 UNL     1     121.634 154.501 137.914  0.00  0.00    +0.161 A 
ATOM     13  C17 UNL     1     122.934 154.447 138.418  0.00  0.00    -0.125 A 
ENDBRANCH   1   8
BRANCH   1  14
ATOM     14  C3  UNL     1     118.801 153.375 141.239  0.00  0.00    +1.172 C 
ATOM     15  O1  UNL     1     117.623 153.105 141.436  0.00  0.00    -0.581 OA
BRANCH  14  17
ATOM     16  C1  UNL     1     118.620 155.850 140.907  0.00  0.00    +0.055 C 
ATOM     17  C2  UNL     1     119.299 154.729 141.689  0.00  0.00    -0.330 C 
ENDBRANCH  14  17
ENDBRANCH   1  14
BRANCH   1  18
ATOM     18  C5  UNL     1     120.411 151.406 141.569  0.00  0.00    -0.300 C 
BRANCH  18  19
ATOM     19  C18 UNL     1     119.765 151.361 142.988  0.00  0.00    +1.160 C 
ATOM     20  C19 UNL     1     118.881 150.104 143.146  0.00  0.00    -0.472 C 
BRANCH  19  21
ATOM     21  N1  UNL     1     120.796 151.486 144.058  0.00  0.00    -0.431 NA
ATOM     22  C20 UNL     1     120.703 152.770 144.773  0.00  0.00    +0.055 C 
ATOM     23  C21 UNL     1     120.829 150.370 145.023  0.00  0.00    +0.081 C 
ENDBRANCH  19  21
ENDBRANCH  18  19
ENDBRANCH   1  18
TORSDOF 7
ENDMDL
MODEL 3
REMARK VINA RESULT:    -6.765      1.156      4.371
REMARK INTER + INTRA:         -10.388
REMARK INTER:                  -9.589
REMARK INTRA:                  -0.799
REMARK UNBOUND:                -0.854
REMARK  Name = Output/Trash/MethadoneSDF_ligand_intermediary.pdb
REMARK  11 active torsions:
REMARK  status: ('A' for Active; 'I' for Inactive)
REMARK    1  A    between atoms: C1_1  and  C2_2
REMARK    2  A    between atoms: C2_2  and  C3_3
REMARK    3  A    between atoms: C3_3  and  C4_4
REMARK    4  A    between atoms: C4_4  and  C5_5
REMARK    5  A    between atoms: C4_4  and  C6_7
REMARK    6  A    between atoms: C4_4  and  C7_8
REMARK    7  A    between atoms: C5_5  and  C18_19
REMARK    8  A    between atoms: C18_19  and  N1_20
REMARK    9  A    between atoms: C18_19  and  C19_21
REMARK   10  A    between atoms: N1_20  and  C20_22
REMARK   11  A    between atoms: N1_20  and  C21_23
REMARK                            x       y       z     vdW  Elec       q    Type
REMARK                         _______ _______ _______ _____ _____    ______ ____
ROOT
ATOM      1  C4  UNL     1     119.154 151.992 140.982  0.00  0.00    -0.536 C 
ENDROOT
BRANCH   1   2
ATOM      2  C6  UNL     1     118.470 151.062 139.946  0.00  0.00    +0.440 A 
ATOM      3  C8  UNL     1     117.121 151.256 139.562  0.00  0.00    -0.238 A 
ATOM      4  C9  UNL     1     119.213 150.087 139.233  0.00  0.00    -0.275 A 
ATOM      5  C10 UNL     1     116.527 150.460 138.579  0.00  0.00    +0.112 A 
ATOM      6  C11 UNL     1     118.612 149.295 138.252  0.00  0.00    +0.146 A 
ATOM      7  C12 UNL     1     117.269 149.475 137.931  0.00  0.00    -0.132 A 
ENDBRANCH   1   2
BRANCH   1   8
ATOM      8  C7  UNL     1     119.476 151.219 142.281  0.00  0.00    +0.426 A 
ATOM      9  C13 UNL     1     118.526 150.311 142.803  0.00  0.00    -0.136 A 
ATOM     10  C14 UNL     1     120.636 151.476 143.050  0.00  0.00    -0.334 A 
ATOM     11  C15 UNL     1     118.755 149.645 144.009  0.00  0.00    +0.083 A 
ATOM     12  C16 UNL     1     120.860 150.803 144.254  0.00  0.00    +0.161 A 
ATOM     13  C17 UNL     1     119.923 149.886 144.731  0.00  0.00    -0.125 A 
ENDBRANCH   1   8
BRANCH   1  14
ATOM     14  C3  UNL     1     120.422 152.523 140.289  0.00  0.00    +1.172 C 
ATOM     15  O1  UNL     1     121.513 152.428 140.835  0.00  0.00    -0.581 OA
BRANCH  14  17
ATOM     16  C1  UNL     1     121.279 154.427 138.906  0.00  0.00    +0.055 C 
ATOM     17  C2  UNL     1     120.365 153.205 138.941  0.00  0.00    -0.330 C 
ENDBRANCH  14  17
ENDBRANCH   1  14
BRANCH   1  18
ATOM     18  C5  UNL     1     118.191 153.178 141.370  0.00  0.00    -0.300 C 
BRANCH  18  19
ATOM     19  C18 UNL     1     118.883 154.505 141.812  0.00  0.00    +1.160 C 
ATOM     20  C19 UNL     1     118.407 155.686 140.939  0.00  0.00    -0.472 C 
BRANCH  19  21
ATOM     21  N1  UNL     1     118.703 154.750 143.272  0.00  0.00    -0.431 NA
ATOM     22  C20 UNL     1     117.744 153.813 143.880  0.00  0.00    +0.055 C 
ATOM     23  C21 UNL     1     119.954 154.775 144.056  0.00  0.00    +0.081 C 
ENDBRANCH  19  21
ENDBRANCH  18  19
ENDBRANCH   1  18
TORSDOF 7
ENDMDL
MODEL 4
REMARK VINA RESULT:    -6.491      1.706      4.348
REMARK INTER + INTRA:         -10.002
REMARK INTER:                  -9.335
REMARK INTRA:                  -0.668
REMARK UNBOUND:                -0.854
REMARK  Name = Output/Trash/MethadoneSDF_ligand_intermediary.pdb
REMARK  11 active torsions:
REMARK  status: ('A' for Active; 'I' for Inactive)
REMARK    1  A    between atoms: C1_1  and  C2_2
REMARK    2  A    between atoms: C2_2  and  C3_3
REMARK    3  A    between atoms: C3_3  and  C4_4
REMARK    4  A    between atoms: C4_4  and  C5_5
REMARK    5  A    between atoms: C4_4  and  C6_7
REMARK    6  A    between atoms: C4_4  and  C7_8
REMARK    7  A    between atoms: C5_5  and  C18_19
REMARK    8  A    between atoms: C18_19  and  N1_20
REMARK    9  A    between atoms: C18_19  and  C19_21
REMARK   10  A    between atoms: N1_20  and  C20_22
REMARK   11  A    between atoms: N1_20  and  C21_23
REMARK                            x       y       z     vdW  Elec       q    Type
REMARK                         _______ _______ _______ _____ _____    ______ ____
ROOT
ATOM      1  C4  UNL     1     119.381 152.217 141.107  0.00  0.00    -0.536 C 
ENDROOT
BRANCH   1   2
ATOM      2  C6  UNL     1     119.567 151.325 142.363  0.00  0.00    +0.440 A 
ATOM      3  C8  UNL     1     120.670 151.503 143.233  0.00  0.00    -0.238 A 
ATOM      4  C9  UNL     1     118.562 150.410 142.767  0.00  0.00    -0.275 A 
ATOM      5  C10 UNL     1     120.800 150.743 144.399  0.00  0.00    +0.112 A 
ATOM      6  C11 UNL     1     118.699 149.655 143.934  0.00  0.00    +0.146 A 
ATOM      7  C12 UNL     1     119.821 149.815 144.745  0.00  0.00    -0.132 A 
ENDBRANCH   1   2
BRANCH   1   8
ATOM      8  C7  UNL     1     118.649 151.441 139.989  0.00  0.00    +0.426 A 
ATOM      9  C13 UNL     1     117.237 151.378 139.997  0.00  0.00    -0.136 A 
ATOM     10  C14 UNL     1     119.339 150.675 139.020  0.00  0.00    -0.334 A 
ATOM     11  C15 UNL     1     116.544 150.632 139.040  0.00  0.00    +0.083 A 
ATOM     12  C16 UNL     1     118.639 149.933 138.064  0.00  0.00    +0.161 A 
ATOM     13  C17 UNL     1     117.244 149.915 138.071  0.00  0.00    -0.125 A 
ENDBRANCH   1   8
BRANCH   1  14
ATOM     14  C3  UNL     1     118.585 153.444 141.585  0.00  0.00    +1.172 C 
ATOM     15  O1  UNL     1     118.365 154.376 140.821  0.00  0.00    -0.581 OA
BRANCH  14  17
ATOM     16  C1  UNL     1     118.891 154.584 143.793  0.00  0.00    +0.055 C 
ATOM     17  C2  UNL     1     118.078 153.562 143.004  0.00  0.00    -0.330 C 
ENDBRANCH  14  17
ENDBRANCH   1  14
BRANCH   1  18
ATOM     18  C5  UNL     1     120.784 152.651 140.534  0.00  0.00    -0.300 C 
BRANCH  18  19
ATOM     19  C18 UNL     1     121.002 154.184 140.346  0.00  0.00    +1.160 C 
ATOM     20  C19 UNL     1     121.883 154.753 141.480  0.00  0.00    -0.472 C 
BRANCH  19  21
ATOM     21  N1  UNL     1     121.530 154.495 138.987  0.00  0.00    -0.431 NA
ATOM     22  C20 UNL     1     122.991 154.329 138.906  0.00  0.00    +0.055 C 
ATOM     23  C21 UNL     1     120.875 153.766 137.884  0.00  0.00    +0.081 C 
ENDBRANCH  19  21
ENDBRANCH  18  19
ENDBRANCH   1  18
TORSDOF 7
ENDMDL
MODEL 5
REMARK VINA RESULT:    -6.480      1.838      4.288
REMARK INTER + INTRA:          -9.986
REMARK INTER:                  -9.036
REMARK INTRA:                  -0.950
REMARK UNBOUND:                -0.854
REMARK  Name = Output/Trash/MethadoneSDF_ligand_intermediary.pdb
REMARK  11 active torsions:
REMARK  status: ('A' for Active; 'I' for Inactive)
REMARK    1  A    between atoms: C1_1  and  C2_2
REMARK    2  A    between atoms: C2_2  and  C3_3
REMARK    3  A    between atoms: C3_3  and  C4_4
REMARK    4  A    between atoms: C4_4  and  C5_5
REMARK    5  A    between atoms: C4_4  and  C6_7
REMARK    6  A    between atoms: C4_4  and  C7_8
REMARK    7  A    between atoms: C5_5  and  C18_19
REMARK    8  A    between atoms: C18_19  and  N1_20
REMARK    9  A    between atoms: C18_19  and  C19_21
REMARK   10  A    between atoms: N1_20  and  C20_22
REMARK   11  A    between atoms: N1_20  and  C21_23
REMARK                            x       y       z     vdW  Elec       q    Type
REMARK                         _______ _______ _______ _____ _____    ______ ____
ROOT
ATOM      1  C4  UNL     1     119.583 153.293 140.726  0.00  0.00    -0.536 C 
ENDROOT
BRANCH   1   2
ATOM      2  C6  UNL     1     120.152 152.782 142.076  0.00  0.00    +0.440 A 
ATOM      3  C8  UNL     1     120.336 153.656 143.174  0.00  0.00    -0.238 A 
ATOM      4  C9  UNL     1     120.361 151.398 142.306  0.00  0.00    -0.275 A 
ATOM      5  C10 UNL     1     120.786 153.181 144.409  0.00  0.00    +0.112 A 
ATOM      6  C11 UNL     1     120.811 150.931 143.543  0.00  0.00    +0.146 A 
ATOM      7  C12 UNL     1     121.031 151.822 144.591  0.00  0.00    -0.132 A 
ENDBRANCH   1   2
BRANCH   1   8
ATOM      8  C7  UNL     1     118.889 152.147 139.956  0.00  0.00    +0.426 A 
ATOM      9  C13 UNL     1     119.447 151.689 138.741  0.00  0.00    -0.136 A 
ATOM     10  C14 UNL     1     117.638 151.617 140.350  0.00  0.00    -0.334 A 
ATOM     11  C15 UNL     1     118.812 150.700 137.985  0.00  0.00    +0.083 A 
ATOM     12  C16 UNL     1     117.010 150.625 139.590  0.00  0.00    +0.161 A 
ATOM     13  C17 UNL     1     117.598 150.164 138.412  0.00  0.00    -0.125 A 
ENDBRANCH   1   8
BRANCH   1  14
ATOM     14  C3  UNL     1     118.608 154.427 141.091  0.00  0.00    +1.172 C 
ATOM     15  O1  UNL     1     117.649 154.209 141.821  0.00  0.00    -0.581 OA
BRANCH  14  17
ATOM     16  C1  UNL     1     119.135 156.808 141.654  0.00  0.00    +0.055 C 
ATOM     17  C2  UNL     1     118.773 155.826 140.544  0.00  0.00    -0.330 C 
ENDBRANCH  14  17
ENDBRANCH   1  14
BRANCH   1  18
ATOM     18  C5  UNL     1     120.749 153.832 139.812  0.00  0.00    -0.300 C 
BRANCH  18  19
ATOM     19  C18 UNL     1     122.196 153.459 140.258  0.00  0.00    +1.160 C 
ATOM     20  C19 UNL     1     122.746 152.293 139.406  0.00  0.00    -0.472 C 
BRANCH  19  21
ATOM     21  N1  UNL     1     123.089 154.653 140.257  0.00  0.00    -0.431 NA
ATOM     22  C20 UNL     1     123.009 155.409 141.518  0.00  0.00    +0.055 C 
ATOM     23  C21 UNL     1     124.499 154.374 139.922  0.00  0.00    +0.081 C 
ENDBRANCH  19  21
ENDBRANCH  18  19
ENDBRANCH   1  18
TORSDOF 7
ENDMDL
MODEL 6
REMARK VINA RESULT:    -6.442      1.372      3.582
REMARK INTER + INTRA:          -9.932
REMARK INTER:                  -9.308
REMARK INTRA:                  -0.625
REMARK UNBOUND:                -0.854
REMARK  Name = Output/Trash/MethadoneSDF_ligand_intermediary.pdb
REMARK  11 active torsions:
REMARK  status: ('A' for Active; 'I' for Inactive)
REMARK    1  A    between atoms: C1_1  and  C2_2
REMARK    2  A    between atoms: C2_2  and  C3_3
REMARK    3  A    between atoms: C3_3  and  C4_4
REMARK    4  A    between atoms: C4_4  and  C5_5
REMARK    5  A    between atoms: C4_4  and  C6_7
REMARK    6  A    between atoms: C4_4  and  C7_8
REMARK    7  A    between atoms: C5_5  and  C18_19
REMARK    8  A    between atoms: C18_19  and  N1_20
REMARK    9  A    between atoms: C18_19  and  C19_21
REMARK   10  A    between atoms: N1_20  and  C20_22
REMARK   11  A    between atoms: N1_20  and  C21_23
REMARK                            x       y       z     vdW  Elec       q    Type
REMARK                         _______ _______ _______ _____ _____    ______ ____
ROOT
ATOM      1  C4  UNL     1     120.359 152.248 140.441  0.00  0.00    -0.536 C 
ENDROOT
BRANCH   1   2
ATOM      2  C6  UNL     1     119.991 153.649 140.997  0.00  0.00    +0.440 A 
ATOM      3  C8  UNL     1     120.882 154.367 141.831  0.00  0.00    -0.238 A 
ATOM      4  C9  UNL     1     118.821 154.325 140.566  0.00  0.00    -0.275 A 
ATOM      5  C10 UNL     1     120.577 155.656 142.275  0.00  0.00    +0.112 A 
ATOM      6  C11 UNL     1     118.523 155.613 141.014  0.00  0.00    +0.146 A 
ATOM      7  C12 UNL     1     119.396 156.275 141.875  0.00  0.00    -0.132 A 
ENDBRANCH   1   2
BRANCH   1   8
ATOM      8  C7  UNL     1     119.159 151.623 139.696  0.00  0.00    +0.426 A 
ATOM      9  C13 UNL     1     117.898 151.567 140.334  0.00  0.00    -0.136 A 
ATOM     10  C14 UNL     1     119.294 150.980 138.443  0.00  0.00    -0.334 A 
ATOM     11  C15 UNL     1     116.806 150.950 139.717  0.00  0.00    +0.083 A 
ATOM     12  C16 UNL     1     118.197 150.367 137.831  0.00  0.00    +0.161 A 
ATOM     13  C17 UNL     1     116.954 150.357 138.464  0.00  0.00    -0.125 A 
ENDBRANCH   1   8
BRANCH   1  14
ATOM     14  C3  UNL     1     121.568 152.474 139.516  0.00  0.00    +1.172 C 
ATOM     15  O1  UNL     1     122.538 151.729 139.571  0.00  0.00    -0.581 OA
BRANCH  14  17
ATOM     16  C1  UNL     1     122.881 154.462 138.746  0.00  0.00    +0.055 C 
ATOM     17  C2  UNL     1     121.620 153.628 138.541  0.00  0.00    -0.330 C 
ENDBRANCH  14  17
ENDBRANCH   1  14
BRANCH   1  18
ATOM     18  C5  UNL     1     120.735 151.275 141.623  0.00  0.00    -0.300 C 
BRANCH  18  19
ATOM     19  C18 UNL     1     119.862 151.391 142.911  0.00  0.00    +1.160 C 
ATOM     20  C19 UNL     1     118.983 150.134 143.090  0.00  0.00    -0.472 C 
BRANCH  19  21
ATOM     21  N1  UNL     1     120.697 151.695 144.108  0.00  0.00    -0.431 NA
ATOM     22  C20 UNL     1     120.080 152.714 144.973  0.00  0.00    +0.055 C 
ATOM     23  C21 UNL     1     121.086 150.518 144.909  0.00  0.00    +0.081 C 
ENDBRANCH  19  21
ENDBRANCH  18  19
ENDBRANCH   1  18
TORSDOF 7
ENDMDL
MODEL 7
REMARK VINA RESULT:    -6.244      2.302      4.553
REMARK INTER + INTRA:          -9.654
REMARK INTER:                  -8.565
REMARK INTRA:                  -1.090
REMARK UNBOUND:                -0.854
REMARK  Name = Output/Trash/MethadoneSDF_ligand_intermediary.pdb
REMARK  11 active torsions:
REMARK  status: ('A' for Active; 'I' for Inactive)
REMARK    1  A    between atoms: C1_1  and  C2_2
REMARK    2  A    between atoms: C2_2  and  C3_3
REMARK    3  A    between atoms: C3_3  and  C4_4
REMARK    4  A    between atoms: C4_4  and  C5_5
REMARK    5  A    between atoms: C4_4  and  C6_7
REMARK    6  A    between atoms: C4_4  and  C7_8
REMARK    7  A    between atoms: C5_5  and  C18_19
REMARK    8  A    between atoms: C18_19  and  N1_20
REMARK    9  A    between atoms: C18_19  and  C19_21
REMARK   10  A    between atoms: N1_20  and  C20_22
REMARK   11  A    between atoms: N1_20  and  C21_23
REMARK                            x       y       z     vdW  Elec       q    Type
REMARK                         _______ _______ _______ _____ _____    ______ ____
ROOT
ATOM      1  C4  UNL     1     119.263 152.750 143.023  0.00  0.00    -0.536 C 
ENDROOT
BRANCH   1   2
ATOM      2  C6  UNL     1     120.217 152.056 144.030  0.00  0.00    +0.440 A 
ATOM      3  C8  UNL     1     121.020 152.809 144.921  0.00  0.00    -0.238 A 
ATOM      4  C9  UNL     1     120.204 150.648 144.202  0.00  0.00    -0.275 A 
ATOM      5  C10 UNL     1     121.828 152.181 145.872  0.00  0.00    +0.112 A 
ATOM      6  C11 UNL     1     121.014 150.028 145.154  0.00  0.00    +0.146 A 
ATOM      7  C12 UNL     1     121.832 150.793 145.984  0.00  0.00    -0.132 A 
ENDBRANCH   1   2
BRANCH   1   8
ATOM      8  C7  UNL     1     118.982 151.831 141.813  0.00  0.00    +0.426 A 
ATOM      9  C13 UNL     1     120.054 151.142 141.200  0.00  0.00    -0.136 A 
ATOM     10  C14 UNL     1     117.707 151.746 141.205  0.00  0.00    -0.334 A 
ATOM     11  C15 UNL     1     119.847 150.355 140.065  0.00  0.00    +0.083 A 
ATOM     12  C16 UNL     1     117.507 150.953 140.071  0.00  0.00    +0.161 A 
ATOM     13  C17 UNL     1     118.574 150.255 139.504  0.00  0.00    -0.125 A 
ENDBRANCH   1   8
BRANCH   1  14
ATOM     14  C3  UNL     1     117.987 153.077 143.819  0.00  0.00    +1.172 C 
ATOM     15  O1  UNL     1     117.552 154.221 143.851  0.00  0.00    -0.581 OA
BRANCH  14  17
ATOM     16  C1  UNL     1     117.118 152.423 146.074  0.00  0.00    +0.055 C 
ATOM     17  C2  UNL     1     117.249 152.020 144.608  0.00  0.00    -0.330 C 
ENDBRANCH  14  17
ENDBRANCH   1  14
BRANCH   1  18
ATOM     18  C5  UNL     1     119.925 154.068 142.465  0.00  0.00    -0.300 C 
BRANCH  18  19
ATOM     19  C18 UNL     1     119.478 154.507 141.036  0.00  0.00    +1.160 C 
ATOM     20  C19 UNL     1     118.585 155.764 141.105  0.00  0.00    -0.472 C 
BRANCH  19  21
ATOM     21  N1  UNL     1     120.649 154.673 140.129  0.00  0.00    -0.431 NA
ATOM     22  C20 UNL     1     121.924 154.373 140.803  0.00  0.00    +0.055 C 
ATOM     23  C21 UNL     1     120.562 153.927 138.858  0.00  0.00    +0.081 C 
ENDBRANCH  19  21
ENDBRANCH  18  19
ENDBRANCH   1  18
TORSDOF 7
ENDMDL
MODEL 8
REMARK VINA RESULT:    -6.216      2.029      4.682
REMARK INTER + INTRA:          -9.615
REMARK INTER:                  -8.912
REMARK INTRA:                  -0.703
REMARK UNBOUND:                -0.854
REMARK  Name = Output/Trash/MethadoneSDF_ligand_intermediary.pdb
REMARK  11 active torsions:
REMARK  status: ('A' for Active; 'I' for Inactive)
REMARK    1  A    between atoms: C1_1  and  C2_2
REMARK    2  A    between atoms: C2_2  and  C3_3
REMARK    3  A    between atoms: C3_3  and  C4_4
REMARK    4  A    between atoms: C4_4  and  C5_5
REMARK    5  A    between atoms: C4_4  and  C6_7
REMARK    6  A    between atoms: C4_4  and  C7_8
REMARK    7  A    between atoms: C5_5  and  C18_19
REMARK    8  A    between atoms: C18_19  and  N1_20
REMARK    9  A    between atoms: C18_19  and  C19_21
REMARK   10  A    between atoms: N1_20  and  C20_22
REMARK   11  A    between atoms: N1_20  and  C21_23
REMARK                            x       y       z     vdW  Elec       q    Type
REMARK                         _______ _______ _______ _____ _____    ______ ____
ROOT
ATOM      1  C4  UNL     1     119.882 153.605 141.146  0.00  0.00    -0.536 C 
ENDROOT
BRANCH   1   2
ATOM      2  C6  UNL     1     119.540 153.432 142.649  0.00  0.00    +0.440 A 
ATOM      3  C8  UNL     1     120.545 153.139 143.603  0.00  0.00    -0.238 A 
ATOM      4  C9  UNL     1     118.240 153.713 143.142  0.00  0.00    -0.275 A 
ATOM      5  C10 UNL     1     120.245 153.051 144.965  0.00  0.00    +0.112 A 
ATOM      6  C11 UNL     1     117.948 153.622 144.504  0.00  0.00    +0.146 A 
ATOM      7  C12 UNL     1     118.947 153.283 145.414  0.00  0.00    -0.132 A 
ENDBRANCH   1   2
BRANCH   1   8
ATOM      8  C7  UNL     1     119.171 152.529 140.296  0.00  0.00    +0.426 A 
ATOM      9  C13 UNL     1     117.920 152.024 140.719  0.00  0.00    -0.136 A 
ATOM     10  C14 UNL     1     119.779 151.927 139.169  0.00  0.00    -0.334 A 
ATOM     11  C15 UNL     1     117.279 151.004 140.011  0.00  0.00    +0.083 A 
ATOM     12  C16 UNL     1     119.131 150.909 138.464  0.00  0.00    +0.161 A 
ATOM     13  C17 UNL     1     117.881 150.451 138.881  0.00  0.00    -0.125 A 
ENDBRANCH   1   8
BRANCH   1  14
ATOM     14  C3  UNL     1     119.433 155.031 140.780  0.00  0.00    +1.172 C 
ATOM     15  O1  UNL     1     119.136 155.310 139.625  0.00  0.00    -0.581 OA
BRANCH  14  17
ATOM     16  C1  UNL     1     118.765 157.404 141.217  0.00  0.00    +0.055 C 
ATOM     17  C2  UNL     1     119.372 156.135 141.810  0.00  0.00    -0.330 C 
ENDBRANCH  14  17
ENDBRANCH   1  14
BRANCH   1  18
ATOM     18  C5  UNL     1     121.433 153.433 140.917  0.00  0.00    -0.300 C 
BRANCH  18  19
ATOM     19  C18 UNL     1     122.199 154.704 140.435  0.00  0.00    +1.160 C 
ATOM     20  C19 UNL     1     123.034 155.307 141.586  0.00  0.00    -0.472 C 
BRANCH  19  21
ATOM     21  N1  UNL     1     123.007 154.421 139.215  0.00  0.00    -0.431 NA
ATOM     22  C20 UNL     1     122.167 154.266 138.015  0.00  0.00    +0.055 C 
ATOM     23  C21 UNL     1     124.093 155.384 138.952  0.00  0.00    +0.081 C 
ENDBRANCH  19  21
ENDBRANCH  18  19
ENDBRANCH   1  18
TORSDOF 7
ENDMDL
MODEL 9
REMARK VINA RESULT:    -6.176      2.049      4.534
REMARK INTER + INTRA:          -9.558
REMARK INTER:                  -8.723
REMARK INTRA:                  -0.834
REMARK UNBOUND:                -0.854
REMARK  Name = Output/Trash/MethadoneSDF_ligand_intermediary.pdb
REMARK  11 active torsions:
REMARK  status: ('A' for Active; 'I' for Inactive)
REMARK    1  A    between atoms: C1_1  and  C2_2
REMARK    2  A    between atoms: C2_2  and  C3_3
REMARK    3  A    between atoms: C3_3  and  C4_4
REMARK    4  A    between atoms: C4_4  and  C5_5
REMARK    5  A    between atoms: C4_4  and  C6_7
REMARK    6  A    between atoms: C4_4  and  C7_8
REMARK    7  A    between atoms: C5_5  and  C18_19
REMARK    8  A    between atoms: C18_19  and  N1_20
REMARK    9  A    between atoms: C18_19  and  C19_21
REMARK   10  A    between atoms: N1_20  and  C20_22
REMARK   11  A    between atoms: N1_20  and  C21_23
REMARK                            x       y       z     vdW  Elec       q    Type
REMARK                         _______ _______ _______ _____ _____    ______ ____
ROOT
ATOM      1  C4  UNL     1     119.413 152.409 142.271  0.00  0.00    -0.536 C 
ENDROOT
BRANCH   1   2
ATOM      2  C6  UNL     1     119.888 151.468 143.409  0.00  0.00    +0.440 A 
ATOM      3  C8  UNL     1     120.955 151.831 144.267  0.00  0.00    -0.238 A 
ATOM      4  C9  UNL     1     119.173 150.285 143.729  0.00  0.00    -0.275 A 
ATOM      5  C10 UNL     1     121.336 151.011 145.332  0.00  0.00    +0.112 A 
ATOM      6  C11 UNL     1     119.560 149.472 144.795  0.00  0.00    +0.146 A 
ATOM      7  C12 UNL     1     120.646 149.830 145.592  0.00  0.00    -0.132 A 
ENDBRANCH   1   2
BRANCH   1   8
ATOM      8  C7  UNL     1     118.921 151.593 141.056  0.00  0.00    +0.426 A 
ATOM      9  C13 UNL     1     117.575 151.713 140.637  0.00  0.00    -0.136 A 
ATOM     10  C14 UNL     1     119.728 150.624 140.414  0.00  0.00    -0.334 A 
ATOM     11  C15 UNL     1     117.078 150.941 139.584  0.00  0.00    +0.083 A 
ATOM     12  C16 UNL     1     119.224 149.858 139.359  0.00  0.00    +0.161 A 
ATOM     13  C17 UNL     1     117.903 150.019 138.941  0.00  0.00    -0.125 A 
ENDBRANCH   1   8
BRANCH   1  14
ATOM     14  C3  UNL     1     118.298 153.273 142.887  0.00  0.00    +1.172 C 
ATOM     15  O1  UNL     1     117.986 154.340 142.374  0.00  0.00    -0.581 OA
BRANCH  14  17
ATOM     16  C1  UNL     1     117.755 153.902 145.249  0.00  0.00    +0.055 C 
ATOM     17  C2  UNL     1     117.575 152.860 144.148  0.00  0.00    -0.330 C 
ENDBRANCH  14  17
ENDBRANCH   1  14
BRANCH   1  18
ATOM     18  C5  UNL     1     120.608 153.311 141.776  0.00  0.00    -0.300 C 
BRANCH  18  19
ATOM     19  C18 UNL     1     120.728 153.502 140.232  0.00  0.00    +1.160 C 
ATOM     20  C19 UNL     1     120.156 154.872 139.806  0.00  0.00    -0.472 C 
BRANCH  19  21
ATOM     21  N1  UNL     1     122.126 153.282 139.765  0.00  0.00    -0.431 NA
ATOM     22  C20 UNL     1     122.182 152.865 138.354  0.00  0.00    +0.055 C 
ATOM     23  C21 UNL     1     123.043 154.415 139.995  0.00  0.00    +0.081 C 
ENDBRANCH  19  21
ENDBRANCH  18  19
ENDBRANCH   1  18
TORSDOF 7
ENDMDL
