MODEL 1
REMARK VINA RESULT:    -8.058      0.000      0.000
REMARK INTER + INTRA:         -11.782
REMARK INTER:                 -10.884
REMARK INTRA:                  -0.898
REMARK UNBOUND:                -0.898
REMARK  Name = Output/Trash/FentanylSDF_ligand_intermediary.pdb
REMARK  7 active torsions:
REMARK  status: ('A' for Active; 'I' for Inactive)
REMARK    1  A    between atoms: N1_2  and  C6_9
REMARK    2  A    between atoms: N2_3  and  C1_4
REMARK    3  A    between atoms: N2_3  and  C8_11
REMARK    4  A    between atoms: C6_9  and  C7_10
REMARK    5  A    between atoms: C7_10  and  C10_13
REMARK    6  A    between atoms: C9_12  and  C11_14
REMARK    7  A    between atoms: C11_14  and  C14_17
REMARK                            x       y       z     vdW  Elec       q    Type
REMARK                         _______ _______ _______ _____ _____    ______ ____
ROOT
ATOM      1  N1  UNL     1     124.333 117.731  92.844  0.00  0.00    -0.752 NA
ATOM      2  C1  UNL     1     121.592 118.519  92.259  0.00  0.00    +1.654 C 
ATOM      3  C2  UNL     1     121.976 117.056  92.532  0.00  0.00    -0.765 C 
ATOM      4  C3  UNL     1     122.596 119.485  92.912  0.00  0.00    -0.856 C 
ATOM      5  C4  UNL     1     123.433 116.803  92.128  0.00  0.00    +0.580 C 
ATOM      6  C5  UNL     1     124.023 119.131  92.480  0.00  0.00    +0.623 C 
ENDROOT
BRANCH   2   8
ATOM      7  O1  UNL     1     119.142 118.055  90.719  0.00  0.00    -0.894 OA
ATOM      8  N2  UNL     1     120.204 118.802  92.680  0.00  0.00    -1.935 N 
ATOM      9  C9  UNL     1     119.058 118.300  91.952  0.00  0.00    +2.239 C 
BRANCH   8  10
ATOM     10  C8  UNL     1     119.996 119.656  93.819  0.00  0.00    +1.669 A 
ATOM     11  C12 UNL     1     120.204 119.166  95.117  0.00  0.00    -0.900 A 
ATOM     12  C13 UNL     1     119.576 120.984  93.640  0.00  0.00    -0.792 A 
ATOM     13  C17 UNL     1     120.000 119.998  96.223  0.00  0.00    +0.501 A 
ATOM     14  C18 UNL     1     119.372 121.813  94.748  0.00  0.00    +0.457 A 
ATOM     15  C19 UNL     1     119.584 121.320  96.039  0.00  0.00    -0.418 A 
ENDBRANCH   8  10
BRANCH   9  16
ATOM     16  C11 UNL     1     117.765 117.990  92.657  0.00  0.00    -0.803 C 
ATOM     17  C14 UNL     1     116.598 118.030  91.677  0.00  0.00    +0.167 C 
ENDBRANCH   9  16
ENDBRANCH   2   8
BRANCH   1  18
ATOM     18  C6  UNL     1     125.750 117.409  92.562  0.00  0.00    +0.434 C 
BRANCH  18  19
ATOM     19  C7  UNL     1     126.495 118.633  92.012  0.00  0.00    -0.555 C 
BRANCH  19  20
ATOM     20  C10 UNL     1     127.761 118.898  92.787  0.00  0.00    +0.852 A 
ATOM     21  C15 UNL     1     127.801 118.679  94.174  0.00  0.00    -0.403 A 
ATOM     22  C16 UNL     1     128.890 119.431  92.140  0.00  0.00    -0.338 A 
ATOM     23  C20 UNL     1     128.962 118.969  94.899  0.00  0.00    +0.215 A 
ATOM     24  C21 UNL     1     130.046 119.721  92.870  0.00  0.00    +0.195 A 
ATOM     25  C22 UNL     1     130.083 119.489  94.247  0.00  0.00    -0.176 A 
ENDBRANCH  19  20
ENDBRANCH  18  19
ENDBRANCH   1  18
TORSDOF 6
ENDMDL
MODEL 2
REMARK VINA RESULT:    -7.869      1.587      2.626
REMARK INTER + INTRA:         -11.528
REMARK INTER:                 -10.763
REMARK INTRA:                  -0.765
REMARK UNBOUND:                -0.898
REMARK  Name = Output/Trash/FentanylSDF_ligand_intermediary.pdb
REMARK  7 active torsions:
REMARK  status: ('A' for Active; 'I' for Inactive)
REMARK    1  A    between atoms: N1_2  and  C6_9
REMARK    2  A    between atoms: N2_3  and  C1_4
REMARK    3  A    between atoms: N2_3  and  C8_11
REMARK    4  A    between atoms: C6_9  and  C7_10
REMARK    5  A    between atoms: C7_10  and  C10_13
REMARK    6  A    between atoms: C9_12  and  C11_14
REMARK    7  A    between atoms: C11_14  and  C14_17
REMARK                            x       y       z     vdW  Elec       q    Type
REMARK                         _______ _______ _______ _____ _____    ______ ____
ROOT
ATOM      1  N1  UNL     1     124.524 119.163  92.537  0.00  0.00    -0.752 NA
ATOM      2  C1  UNL     1     121.652 119.496  92.189  0.00  0.00    +1.654 C 
ATOM      3  C2  UNL     1     122.315 118.109  92.191  0.00  0.00    -0.765 C 
ATOM      4  C3  UNL     1     122.503 120.516  92.966  0.00  0.00    -0.856 C 
ATOM      5  C4  UNL     1     123.763 118.210  91.701  0.00  0.00    +0.580 C 
ATOM      6  C5  UNL     1     123.940 120.517  92.432  0.00  0.00    +0.623 C 
ENDROOT
BRANCH   2   8
ATOM      7  O1  UNL     1     119.258 118.659  90.723  0.00  0.00    -0.894 OA
ATOM      8  N2  UNL     1     120.267 119.435  92.700  0.00  0.00    -1.935 N 
ATOM      9  C9  UNL     1     119.205 118.767  91.977  0.00  0.00    +2.239 C 
BRANCH   8  10
ATOM     10  C8  UNL     1     119.960 120.118  93.928  0.00  0.00    +1.669 A 
ATOM     11  C12 UNL     1     119.378 121.395  93.900  0.00  0.00    -0.900 A 
ATOM     12  C13 UNL     1     120.247 119.516  95.164  0.00  0.00    -0.792 A 
ATOM     13  C17 UNL     1     119.082 122.058  95.095  0.00  0.00    +0.501 A 
ATOM     14  C18 UNL     1     119.949 120.182  96.357  0.00  0.00    +0.457 A 
ATOM     15  C19 UNL     1     119.367 121.453  96.322  0.00  0.00    -0.418 A 
ENDBRANCH   8  10
BRANCH   9  16
ATOM     16  C11 UNL     1     118.055 118.125  92.704  0.00  0.00    -0.803 C 
ATOM     17  C14 UNL     1     116.826 118.055  91.805  0.00  0.00    +0.167 C 
ENDBRANCH   9  16
ENDBRANCH   2   8
BRANCH   1  18
ATOM     18  C6  UNL     1     125.954 119.168  92.155  0.00  0.00    +0.434 C 
BRANCH  18  19
ATOM     19  C7  UNL     1     126.741 118.116  92.949  0.00  0.00    -0.555 C 
BRANCH  19  20
ATOM     20  C10 UNL     1     127.009 116.889  92.115  0.00  0.00    +0.852 A 
ATOM     21  C15 UNL     1     126.234 115.731  92.288  0.00  0.00    -0.403 A 
ATOM     22  C16 UNL     1     128.081 116.871  91.206  0.00  0.00    -0.338 A 
ATOM     23  C20 UNL     1     126.514 114.578  91.547  0.00  0.00    +0.215 A 
ATOM     24  C21 UNL     1     128.359 115.716  90.469  0.00  0.00    +0.195 A 
ATOM     25  C22 UNL     1     127.575 114.572  90.638  0.00  0.00    -0.176 A 
ENDBRANCH  19  20
ENDBRANCH  18  19
ENDBRANCH   1  18
TORSDOF 6
ENDMDL
MODEL 3
REMARK VINA RESULT:    -7.821      3.695      7.006
REMARK INTER + INTRA:         -11.463
REMARK INTER:                 -10.831
REMARK INTRA:                  -0.632
REMARK UNBOUND:                -0.898
REMARK  Name = Output/Trash/FentanylSDF_ligand_intermediary.pdb
REMARK  7 active torsions:
REMARK  status: ('A' for Active; 'I' for Inactive)
REMARK    1  A    between atoms: N1_2  and  C6_9
REMARK    2  A    between atoms: N2_3  and  C1_4
REMARK    3  A    between atoms: N2_3  and  C8_11
REMARK    4  A    between atoms: C6_9  and  C7_10
REMARK    5  A    between atoms: C7_10  and  C10_13
REMARK    6  A    between atoms: C9_12  and  C11_14
REMARK    7  A    between atoms: C11_14  and  C14_17
REMARK                            x       y       z     vdW  Elec       q    Type
REMARK                         _______ _______ _______ _____ _____    ______ ____
ROOT
ATOM      1  N1  UNL     1     121.755 117.786  92.277  0.00  0.00    -0.752 NA
ATOM      2  C1  UNL     1     119.314 116.482  91.374  0.00  0.00    +1.654 C 
ATOM      3  C2  UNL     1     120.125 117.412  90.458  0.00  0.00    -0.765 C 
ATOM      4  C3  UNL     1     120.204 115.875  92.473  0.00  0.00    -0.856 C 
ATOM      5  C4  UNL     1     120.881 118.453  91.290  0.00  0.00    +0.580 C 
ATOM      6  C5  UNL     1     120.946 116.987  93.223  0.00  0.00    +0.623 C 
ENDROOT
BRANCH   2   8
ATOM      7  O1  UNL     1     116.454 115.846  91.452  0.00  0.00    -0.894 OA
ATOM      8  N2  UNL     1     118.608 115.439  90.601  0.00  0.00    -1.935 N 
ATOM      9  C9  UNL     1     117.164 115.379  90.521  0.00  0.00    +2.239 C 
BRANCH   8  10
ATOM     10  C8  UNL     1     119.392 114.418  89.958  0.00  0.00    +1.669 A 
ATOM     11  C12 UNL     1     119.303 113.084  90.387  0.00  0.00    -0.900 A 
ATOM     12  C13 UNL     1     120.256 114.748  88.901  0.00  0.00    -0.792 A 
ATOM     13  C17 UNL     1     120.066 112.093  89.762  0.00  0.00    +0.501 A 
ATOM     14  C18 UNL     1     121.017 113.754  88.279  0.00  0.00    +0.457 A 
ATOM     15  C19 UNL     1     120.922 112.427  88.709  0.00  0.00    -0.418 A 
ENDBRANCH   8  10
BRANCH   9  16
ATOM     16  C11 UNL     1     116.476 114.828  89.302  0.00  0.00    -0.803 C 
ATOM     17  C14 UNL     1     114.962 114.896  89.466  0.00  0.00    +0.167 C 
ENDBRANCH   9  16
ENDBRANCH   2   8
BRANCH   1  18
ATOM     18  C6  UNL     1     122.587 118.778  92.995  0.00  0.00    +0.434 C 
BRANCH  18  19
ATOM     19  C7  UNL     1     122.048 120.201  92.791  0.00  0.00    -0.555 C 
BRANCH  19  20
ATOM     20  C10 UNL     1     121.029 120.557  93.844  0.00  0.00    +0.852 A 
ATOM     21  C15 UNL     1     120.019 121.492  93.564  0.00  0.00    -0.403 A 
ATOM     22  C16 UNL     1     121.121 120.007  95.134  0.00  0.00    -0.338 A 
ATOM     23  C20 UNL     1     119.102 121.857  94.556  0.00  0.00    +0.215 A 
ATOM     24  C21 UNL     1     120.204 120.376  96.123  0.00  0.00    +0.195 A 
ATOM     25  C22 UNL     1     119.195 121.297  95.834  0.00  0.00    -0.176 A 
ENDBRANCH  19  20
ENDBRANCH  18  19
ENDBRANCH   1  18
TORSDOF 6
ENDMDL
MODEL 4
REMARK VINA RESULT:    -7.722      3.338      6.467
REMARK INTER + INTRA:         -11.329
REMARK INTER:                 -10.502
REMARK INTRA:                  -0.827
REMARK UNBOUND:                -0.898
REMARK  Name = Output/Trash/FentanylSDF_ligand_intermediary.pdb
REMARK  7 active torsions:
REMARK  status: ('A' for Active; 'I' for Inactive)
REMARK    1  A    between atoms: N1_2  and  C6_9
REMARK    2  A    between atoms: N2_3  and  C1_4
REMARK    3  A    between atoms: N2_3  and  C8_11
REMARK    4  A    between atoms: C6_9  and  C7_10
REMARK    5  A    between atoms: C7_10  and  C10_13
REMARK    6  A    between atoms: C9_12  and  C11_14
REMARK    7  A    between atoms: C11_14  and  C14_17
REMARK                            x       y       z     vdW  Elec       q    Type
REMARK                         _______ _______ _______ _____ _____    ______ ____
ROOT
ATOM      1  N1  UNL     1     119.774 115.450  91.153  0.00  0.00    -0.752 NA
ATOM      2  C1  UNL     1     120.129 117.808  92.826  0.00  0.00    +1.654 C 
ATOM      3  C2  UNL     1     120.508 116.400  93.314  0.00  0.00    -0.765 C 
ATOM      4  C3  UNL     1     120.159 117.886  91.289  0.00  0.00    -0.856 C 
ATOM      5  C4  UNL     1     119.640 115.344  92.622  0.00  0.00    +0.580 C 
ATOM      6  C5  UNL     1     119.296 116.770  90.688  0.00  0.00    +0.623 C 
ENDROOT
BRANCH   2   8
ATOM      7  O1  UNL     1     123.047 117.782  93.085  0.00  0.00    -0.894 OA
ATOM      8  N2  UNL     1     120.980 118.844  93.445  0.00  0.00    -1.935 N 
ATOM      9  C9  UNL     1     122.419 118.855  93.292  0.00  0.00    +2.239 C 
BRANCH   8  10
ATOM     10  C8  UNL     1     120.353 119.837  94.277  0.00  0.00    +1.669 A 
ATOM     11  C12 UNL     1     119.734 120.955  93.698  0.00  0.00    -0.900 A 
ATOM     12  C13 UNL     1     120.363 119.698  95.674  0.00  0.00    -0.792 A 
ATOM     13  C17 UNL     1     119.126 121.919  94.508  0.00  0.00    +0.501 A 
ATOM     14  C18 UNL     1     119.755 120.664  96.481  0.00  0.00    +0.457 A 
ATOM     15  C19 UNL     1     119.137 121.774  95.898  0.00  0.00    -0.418 A 
ENDBRANCH   8  10
BRANCH   9  16
ATOM     16  C11 UNL     1     123.192 120.146  93.304  0.00  0.00    -0.803 C 
ATOM     17  C14 UNL     1     123.977 120.313  92.008  0.00  0.00    +0.167 C 
ENDBRANCH   9  16
ENDBRANCH   2   8
BRANCH   1  18
ATOM     18  C6  UNL     1     119.045 114.352  90.480  0.00  0.00    +0.434 C 
BRANCH  18  19
ATOM     19  C7  UNL     1     119.218 114.428  88.956  0.00  0.00    -0.555 C 
BRANCH  19  20
ATOM     20  C10 UNL     1     120.607 114.013  88.542  0.00  0.00    +0.852 A 
ATOM     21  C15 UNL     1     121.022 112.680  88.691  0.00  0.00    -0.403 A 
ATOM     22  C16 UNL     1     121.520 114.971  88.066  0.00  0.00    -0.338 A 
ATOM     23  C20 UNL     1     122.327 112.306  88.350  0.00  0.00    +0.215 A 
ATOM     24  C21 UNL     1     122.823 114.593  87.728  0.00  0.00    +0.195 A 
ATOM     25  C22 UNL     1     123.225 113.262  87.868  0.00  0.00    -0.176 A 
ENDBRANCH  19  20
ENDBRANCH  18  19
ENDBRANCH   1  18
TORSDOF 6
ENDMDL
MODEL 5
REMARK VINA RESULT:    -7.577      0.982      1.724
REMARK INTER + INTRA:         -11.134
REMARK INTER:                 -10.203
REMARK INTRA:                  -0.931
REMARK UNBOUND:                -0.898
REMARK  Name = Output/Trash/FentanylSDF_ligand_intermediary.pdb
REMARK  7 active torsions:
REMARK  status: ('A' for Active; 'I' for Inactive)
REMARK    1  A    between atoms: N1_2  and  C6_9
REMARK    2  A    between atoms: N2_3  and  C1_4
REMARK    3  A    between atoms: N2_3  and  C8_11
REMARK    4  A    between atoms: C6_9  and  C7_10
REMARK    5  A    between atoms: C7_10  and  C10_13
REMARK    6  A    between atoms: C9_12  and  C11_14
REMARK    7  A    between atoms: C11_14  and  C14_17
REMARK                            x       y       z     vdW  Elec       q    Type
REMARK                         _______ _______ _______ _____ _____    ______ ____
ROOT
ATOM      1  N1  UNL     1     125.231 117.947  91.351  0.00  0.00    -0.752 NA
ATOM      2  C1  UNL     1     122.784 118.622  92.777  0.00  0.00    +1.654 C 
ATOM      3  C2  UNL     1     123.256 119.420  91.551  0.00  0.00    -0.765 C 
ATOM      4  C3  UNL     1     123.345 117.189  92.754  0.00  0.00    -0.856 C 
ATOM      5  C4  UNL     1     124.782 119.353  91.428  0.00  0.00    +0.580 C 
ATOM      6  C5  UNL     1     124.869 117.224  92.590  0.00  0.00    +0.623 C 
ENDROOT
BRANCH   2   8
ATOM      7  O1  UNL     1     120.842 117.563  90.855  0.00  0.00    -0.894 OA
ATOM      8  N2  UNL     1     121.311 118.633  92.896  0.00  0.00    -1.935 N 
ATOM      9  C9  UNL     1     120.459 117.859  92.018  0.00  0.00    +2.239 C 
BRANCH   8  10
ATOM     10  C8  UNL     1     120.711 119.492  93.882  0.00  0.00    +1.669 A 
ATOM     11  C12 UNL     1     120.762 119.150  95.242  0.00  0.00    -0.900 A 
ATOM     12  C13 UNL     1     120.062 120.674  93.490  0.00  0.00    -0.792 A 
ATOM     13  C17 UNL     1     120.177 119.986  96.199  0.00  0.00    +0.501 A 
ATOM     14  C18 UNL     1     119.478 121.507  94.449  0.00  0.00    +0.457 A 
ATOM     15  C19 UNL     1     119.536 121.163  95.802  0.00  0.00    -0.418 A 
ENDBRANCH   8  10
BRANCH   9  16
ATOM     16  C11 UNL     1     119.133 117.329  92.492  0.00  0.00    -0.803 C 
ATOM     17  C14 UNL     1     117.996 117.903  91.654  0.00  0.00    +0.167 C 
ENDBRANCH   9  16
ENDBRANCH   2   8
BRANCH   1  18
ATOM     18  C6  UNL     1     126.688 117.875  91.100  0.00  0.00    +0.434 C 
BRANCH  18  19
ATOM     19  C7  UNL     1     127.322 119.273  91.124  0.00  0.00    -0.555 C 
BRANCH  19  20
ATOM     20  C10 UNL     1     128.300 119.411  92.262  0.00  0.00    +0.852 A 
ATOM     21  C15 UNL     1     129.546 120.026  92.056  0.00  0.00    -0.403 A 
ATOM     22  C16 UNL     1     128.001 118.867  93.524  0.00  0.00    -0.338 A 
ATOM     23  C20 UNL     1     130.471 120.111  93.101  0.00  0.00    +0.215 A 
ATOM     24  C21 UNL     1     128.929 118.953  94.565  0.00  0.00    +0.195 A 
ATOM     25  C22 UNL     1     130.162 119.576  94.355  0.00  0.00    -0.176 A 
ENDBRANCH  19  20
ENDBRANCH  18  19
ENDBRANCH   1  18
TORSDOF 6
ENDMDL
MODEL 6
REMARK VINA RESULT:    -7.170      2.630      9.014
REMARK INTER + INTRA:         -10.583
REMARK INTER:                  -9.806
REMARK INTRA:                  -0.777
REMARK UNBOUND:                -0.898
REMARK  Name = Output/Trash/FentanylSDF_ligand_intermediary.pdb
REMARK  7 active torsions:
REMARK  status: ('A' for Active; 'I' for Inactive)
REMARK    1  A    between atoms: N1_2  and  C6_9
REMARK    2  A    between atoms: N2_3  and  C1_4
REMARK    3  A    between atoms: N2_3  and  C8_11
REMARK    4  A    between atoms: C6_9  and  C7_10
REMARK    5  A    between atoms: C7_10  and  C10_13
REMARK    6  A    between atoms: C9_12  and  C11_14
REMARK    7  A    between atoms: C11_14  and  C14_17
REMARK                            x       y       z     vdW  Elec       q    Type
REMARK                         _______ _______ _______ _____ _____    ______ ____
ROOT
ATOM      1  N1  UNL     1     120.674 117.848  92.682  0.00  0.00    -0.752 NA
ATOM      2  C1  UNL     1     123.406 117.255  91.867  0.00  0.00    +1.654 C 
ATOM      3  C2  UNL     1     122.636 118.462  91.309  0.00  0.00    -0.765 C 
ATOM      4  C3  UNL     1     122.857 116.836  93.242  0.00  0.00    -0.856 C 
ATOM      5  C4  UNL     1     121.129 118.182  91.316  0.00  0.00    +0.580 C 
ATOM      6  C5  UNL     1     121.342 116.617  93.159  0.00  0.00    +0.623 C 
ENDROOT
BRANCH   2   8
ATOM      7  O1  UNL     1     124.743 119.703  92.765  0.00  0.00    -0.894 OA
ATOM      8  N2  UNL     1     124.860 117.514  91.913  0.00  0.00    -1.935 N 
ATOM      9  C9  UNL     1     125.421 118.652  92.610  0.00  0.00    +2.239 C 
BRANCH   8  10
ATOM     10  C8  UNL     1     125.735 116.634  91.185  0.00  0.00    +1.669 A 
ATOM     11  C12 UNL     1     126.218 117.005  89.920  0.00  0.00    -0.900 A 
ATOM     12  C13 UNL     1     126.106 115.394  91.731  0.00  0.00    -0.792 A 
ATOM     13  C17 UNL     1     127.067 116.147  89.214  0.00  0.00    +0.501 A 
ATOM     14  C18 UNL     1     126.955 114.540  91.021  0.00  0.00    +0.457 A 
ATOM     15  C19 UNL     1     127.436 114.916  89.764  0.00  0.00    -0.418 A 
ENDBRANCH   8  10
BRANCH   9  16
ATOM     16  C11 UNL     1     126.792 118.586  93.228  0.00  0.00    -0.803 C 
ATOM     17  C14 UNL     1     127.794 119.373  92.391  0.00  0.00    +0.167 C 
ENDBRANCH   9  16
ENDBRANCH   2   8
BRANCH   1  18
ATOM     18  C6  UNL     1     119.202 117.705  92.724  0.00  0.00    +0.434 C 
BRANCH  18  19
ATOM     19  C7  UNL     1     118.589 117.899  91.330  0.00  0.00    -0.555 C 
BRANCH  19  20
ATOM     20  C10 UNL     1     117.952 116.627  90.830  0.00  0.00    +0.852 A 
ATOM     21  C15 UNL     1     118.748 115.594  90.309  0.00  0.00    -0.403 A 
ATOM     22  C16 UNL     1     116.553 116.492  90.818  0.00  0.00    -0.338 A 
ATOM     23  C20 UNL     1     118.153 114.434  89.802  0.00  0.00    +0.215 A 
ATOM     24  C21 UNL     1     115.963 115.331  90.309  0.00  0.00    +0.195 A 
ATOM     25  C22 UNL     1     116.762 114.303  89.803  0.00  0.00    -0.176 A 
ENDBRANCH  19  20
ENDBRANCH  18  19
ENDBRANCH   1  18
TORSDOF 6
ENDMDL
MODEL 7
REMARK VINA RESULT:    -7.021      2.103      2.616
REMARK INTER + INTRA:         -10.382
REMARK INTER:                  -9.492
REMARK INTRA:                  -0.890
REMARK UNBOUND:                -0.898
REMARK  Name = Output/Trash/FentanylSDF_ligand_intermediary.pdb
REMARK  7 active torsions:
REMARK  status: ('A' for Active; 'I' for Inactive)
REMARK    1  A    between atoms: N1_2  and  C6_9
REMARK    2  A    between atoms: N2_3  and  C1_4
REMARK    3  A    between atoms: N2_3  and  C8_11
REMARK    4  A    between atoms: C6_9  and  C7_10
REMARK    5  A    between atoms: C7_10  and  C10_13
REMARK    6  A    between atoms: C9_12  and  C11_14
REMARK    7  A    between atoms: C11_14  and  C14_17
REMARK                            x       y       z     vdW  Elec       q    Type
REMARK                         _______ _______ _______ _____ _____    ______ ____
ROOT
ATOM      1  N1  UNL     1     124.663 119.180  91.816  0.00  0.00    -0.752 NA
ATOM      2  C1  UNL     1     121.901 118.269  91.947  0.00  0.00    +1.654 C 
ATOM      3  C2  UNL     1     122.845 118.176  93.156  0.00  0.00    -0.765 C 
ATOM      4  C3  UNL     1     122.348 119.380  90.980  0.00  0.00    -0.856 C 
ATOM      5  C4  UNL     1     124.298 118.044  92.688  0.00  0.00    +0.580 C 
ATOM      6  C5  UNL     1     123.820 119.186  90.600  0.00  0.00    +0.623 C 
ENDROOT
BRANCH   2   8
ATOM      7  O1  UNL     1     119.499 117.406  90.507  0.00  0.00    -0.894 OA
ATOM      8  N2  UNL     1     120.495 118.441  92.369  0.00  0.00    -1.935 N 
ATOM      9  C9  UNL     1     119.402 117.754  91.714  0.00  0.00    +2.239 C 
BRANCH   8  10
ATOM     10  C8  UNL     1     120.209 119.371  93.429  0.00  0.00    +1.669 A 
ATOM     11  C12 UNL     1     120.234 118.947  94.767  0.00  0.00    -0.900 A 
ATOM     12  C13 UNL     1     119.894 120.707  93.132  0.00  0.00    -0.792 A 
ATOM     13  C17 UNL     1     119.954 119.852  95.795  0.00  0.00    +0.501 A 
ATOM     14  C18 UNL     1     119.614 121.609  94.163  0.00  0.00    +0.457 A 
ATOM     15  C19 UNL     1     119.645 121.182  95.494  0.00  0.00    -0.418 A 
ENDBRANCH   8  10
BRANCH   9  16
ATOM     16  C11 UNL     1     118.157 117.377  92.472  0.00  0.00    -0.803 C 
ATOM     17  C14 UNL     1     116.951 118.136  91.931  0.00  0.00    +0.167 C 
ENDBRANCH   9  16
ENDBRANCH   2   8
BRANCH   1  18
ATOM     18  C6  UNL     1     126.101 119.132  91.466  0.00  0.00    +0.434 C 
BRANCH  18  19
ATOM     19  C7  UNL     1     126.375 119.885  90.157  0.00  0.00    -0.555 C 
BRANCH  19  20
ATOM     20  C10 UNL     1     126.996 121.233  90.420  0.00  0.00    +0.852 A 
ATOM     21  C15 UNL     1     128.385 121.353  90.589  0.00  0.00    -0.403 A 
ATOM     22  C16 UNL     1     126.183 122.371  90.567  0.00  0.00    -0.338 A 
ATOM     23  C20 UNL     1     128.955 122.597  90.880  0.00  0.00    +0.215 A 
ATOM     24  C21 UNL     1     126.757 123.612  90.859  0.00  0.00    +0.195 A 
ATOM     25  C22 UNL     1     128.140 123.725  91.014  0.00  0.00    -0.176 A 
ENDBRANCH  19  20
ENDBRANCH  18  19
ENDBRANCH   1  18
TORSDOF 6
ENDMDL
MODEL 8
REMARK VINA RESULT:    -7.005      2.947      8.547
REMARK INTER + INTRA:         -10.360
REMARK INTER:                  -9.376
REMARK INTRA:                  -0.984
REMARK UNBOUND:                -0.898
REMARK  Name = Output/Trash/FentanylSDF_ligand_intermediary.pdb
REMARK  7 active torsions:
REMARK  status: ('A' for Active; 'I' for Inactive)
REMARK    1  A    between atoms: N1_2  and  C6_9
REMARK    2  A    between atoms: N2_3  and  C1_4
REMARK    3  A    between atoms: N2_3  and  C8_11
REMARK    4  A    between atoms: C6_9  and  C7_10
REMARK    5  A    between atoms: C7_10  and  C10_13
REMARK    6  A    between atoms: C9_12  and  C11_14
REMARK    7  A    between atoms: C11_14  and  C14_17
REMARK                            x       y       z     vdW  Elec       q    Type
REMARK                         _______ _______ _______ _____ _____    ______ ____
ROOT
ATOM      1  N1  UNL     1     121.884 118.504  92.455  0.00  0.00    -0.752 NA
ATOM      2  C1  UNL     1     124.660 119.329  92.756  0.00  0.00    +1.654 C 
ATOM      3  C2  UNL     1     124.278 117.916  92.286  0.00  0.00    -0.765 C 
ATOM      4  C3  UNL     1     123.539 120.337  92.444  0.00  0.00    -0.856 C 
ATOM      5  C4  UNL     1     122.911 117.517  92.851  0.00  0.00    +0.580 C 
ATOM      6  C5  UNL     1     122.207 119.835  93.014  0.00  0.00    +0.623 C 
ENDROOT
BRANCH   2   8
ATOM      7  O1  UNL     1     127.326 118.852  93.874  0.00  0.00    -0.894 OA
ATOM      8  N2  UNL     1     125.956 119.757  92.190  0.00  0.00    -1.935 N 
ATOM      9  C9  UNL     1     127.219 119.251  92.683  0.00  0.00    +2.239 C 
BRANCH   8  10
ATOM     10  C8  UNL     1     125.954 120.756  91.155  0.00  0.00    +1.669 A 
ATOM     11  C12 UNL     1     126.248 122.094  91.464  0.00  0.00    -0.900 A 
ATOM     12  C13 UNL     1     125.649 120.404  89.831  0.00  0.00    -0.792 A 
ATOM     13  C17 UNL     1     126.244 123.064  90.457  0.00  0.00    +0.501 A 
ATOM     14  C18 UNL     1     125.646 121.376  88.827  0.00  0.00    +0.457 A 
ATOM     15  C19 UNL     1     125.944 122.706  89.140  0.00  0.00    -0.418 A 
ENDBRANCH   8  10
BRANCH   9  16
ATOM     16  C11 UNL     1     128.411 119.120  91.774  0.00  0.00    -0.803 C 
ATOM     17  C14 UNL     1     128.295 117.865  90.916  0.00  0.00    +0.167 C 
ENDBRANCH   9  16
ENDBRANCH   2   8
BRANCH   1  18
ATOM     18  C6  UNL     1     120.538 118.060  92.883  0.00  0.00    +0.434 C 
BRANCH  18  19
ATOM     19  C7  UNL     1     120.163 116.723  92.227  0.00  0.00    -0.555 C 
BRANCH  19  20
ATOM     20  C10 UNL     1     118.772 116.768  91.649  0.00  0.00    +0.852 A 
ATOM     21  C15 UNL     1     117.950 117.887  91.865  0.00  0.00    -0.403 A 
ATOM     22  C16 UNL     1     118.261 115.663  90.946  0.00  0.00    -0.338 A 
ATOM     23  C20 UNL     1     116.643 117.907  91.368  0.00  0.00    +0.215 A 
ATOM     24  C21 UNL     1     116.953 115.687  90.453  0.00  0.00    +0.195 A 
ATOM     25  C22 UNL     1     116.146 116.808  90.661  0.00  0.00    -0.176 A 
ENDBRANCH  19  20
ENDBRANCH  18  19
ENDBRANCH   1  18
TORSDOF 6
ENDMDL
MODEL 9
REMARK VINA RESULT:    -6.985      2.478      8.448
REMARK INTER + INTRA:         -10.334
REMARK INTER:                  -9.422
REMARK INTRA:                  -0.912
REMARK UNBOUND:                -0.898
REMARK  Name = Output/Trash/FentanylSDF_ligand_intermediary.pdb
REMARK  7 active torsions:
REMARK  status: ('A' for Active; 'I' for Inactive)
REMARK    1  A    between atoms: N1_2  and  C6_9
REMARK    2  A    between atoms: N2_3  and  C1_4
REMARK    3  A    between atoms: N2_3  and  C8_11
REMARK    4  A    between atoms: C6_9  and  C7_10
REMARK    5  A    between atoms: C7_10  and  C10_13
REMARK    6  A    between atoms: C9_12  and  C11_14
REMARK    7  A    between atoms: C11_14  and  C14_17
REMARK                            x       y       z     vdW  Elec       q    Type
REMARK                         _______ _______ _______ _____ _____    ______ ____
ROOT
ATOM      1  N1  UNL     1     122.188 118.776  92.007  0.00  0.00    -0.752 NA
ATOM      2  C1  UNL     1     125.049 119.107  91.579  0.00  0.00    +1.654 C 
ATOM      3  C2  UNL     1     124.411 119.272  92.968  0.00  0.00    -0.765 C 
ATOM      4  C3  UNL     1     124.189 118.200  90.680  0.00  0.00    -0.856 C 
ATOM      5  C4  UNL     1     122.955 119.732  92.834  0.00  0.00    +0.580 C 
ATOM      6  C5  UNL     1     122.747 118.717  90.639  0.00  0.00    +0.623 C 
ENDROOT
BRANCH   2   8
ATOM      7  O1  UNL     1     127.478 120.727  91.827  0.00  0.00    -0.894 OA
ATOM      8  N2  UNL     1     126.441 118.621  91.677  0.00  0.00    -1.935 N 
ATOM      9  C9  UNL     1     127.538 119.488  92.053  0.00  0.00    +2.239 C 
BRANCH   8  10
ATOM     10  C8  UNL     1     126.715 117.253  91.325  0.00  0.00    +1.669 A 
ATOM     11  C12 UNL     1     127.363 116.950  90.118  0.00  0.00    -0.900 A 
ATOM     12  C13 UNL     1     126.329 116.211  92.183  0.00  0.00    -0.792 A 
ATOM     13  C17 UNL     1     127.627 115.620  89.777  0.00  0.00    +0.501 A 
ATOM     14  C18 UNL     1     126.594 114.882  91.839  0.00  0.00    +0.457 A 
ATOM     15  C19 UNL     1     127.243 114.587  90.637  0.00  0.00    -0.418 A 
ENDBRANCH   8  10
BRANCH   9  16
ATOM     16  C11 UNL     1     128.738 118.950  92.784  0.00  0.00    -0.803 C 
ATOM     17  C14 UNL     1     130.024 119.508  92.185  0.00  0.00    +0.167 C 
ENDBRANCH   9  16
ENDBRANCH   2   8
BRANCH   1  18
ATOM     18  C6  UNL     1     120.754 119.140  91.981  0.00  0.00    +0.434 C 
BRANCH  18  19
ATOM     19  C7  UNL     1     120.020 118.583  93.209  0.00  0.00    -0.555 C 
BRANCH  19  20
ATOM     20  C10 UNL     1     119.700 119.674  94.198  0.00  0.00    +0.852 A 
ATOM     21  C15 UNL     1     119.134 120.883  93.761  0.00  0.00    -0.403 A 
ATOM     22  C16 UNL     1     120.029 119.518  95.556  0.00  0.00    -0.338 A 
ATOM     23  C20 UNL     1     118.881 121.912  94.674  0.00  0.00    +0.215 A 
ATOM     24  C21 UNL     1     119.775 120.550  96.464  0.00  0.00    +0.195 A 
ATOM     25  C22 UNL     1     119.201 121.745  96.024  0.00  0.00    -0.176 A 
ENDBRANCH  19  20
ENDBRANCH  18  19
ENDBRANCH   1  18
TORSDOF 6
ENDMDL
