MODEL 1
REMARK VINA RESULT:    -8.900      0.000      0.000
REMARK INTER + INTRA:         -10.787
REMARK INTER:                  -9.941
REMARK INTRA:                  -0.846
REMARK UNBOUND:                -0.846
REMARK  Name = Output/Trash/BU72_ligand_ligand_intermediary.pdb
REMARK  2 active torsions:
REMARK  status: ('A' for Active; 'I' for Inactive)
REMARK    1  A    between atoms: CBE_17  and  OAT_18
REMARK    2  A    between atoms: CAY_26  and  CAV_27
REMARK                            x       y       z     vdW  Elec       q    Type
REMARK                         _______ _______ _______ _____ _____    ______ ____
ROOT
ATOM      1  CAP VF1 A 407     121.412 151.539 141.415  0.00  0.00    -0.017 C 
ATOM      2  CAO VF1 A 407     120.970 150.589 140.321  0.00  0.00    +0.278 C 
ATOM      3  NBB VF1 A 407     119.497 150.579 140.202  0.00  0.00    -0.604 NA
ATOM      4  CAB VF1 A 407     119.096 149.577 139.224  0.00  0.00    +0.239 C 
ATOM      5  CAZ VF1 A 407     118.979 151.916 139.854  0.00  0.00    +0.492 C 
ATOM      6  CAQ VF1 A 407     119.510 152.541 138.562  0.00  0.00    -0.201 C 
ATOM      7  CAW VF1 A 407     120.756 153.381 138.727  0.00  0.00    -0.014 A 
ATOM      8  CAM VF1 A 407     121.334 153.980 137.610  0.00  0.00    +0.124 A 
ATOM      9  CAL VF1 A 407     122.492 154.748 137.709  0.00  0.00    -0.383 A 
ATOM     10  CAU VF1 A 407     123.109 154.876 138.934  0.00  0.00    +0.847 A 
ATOM     11  OAD VF1 A 407     124.241 155.563 139.160  0.00  0.00    -0.392 OA
ATOM     12  CAN VF1 A 407     122.553 154.261 140.051  0.00  0.00    -0.351 A 
ATOM     13  CAX VF1 A 407     121.365 153.549 139.974  0.00  0.00    +0.008 A 
ATOM     14  CBF VF1 A 407     120.761 152.925 141.252  0.00  0.00    +0.095 C 
ATOM     15  CBA VF1 A 407     120.959 153.757 142.534  0.00  0.00    +0.021 C 
ATOM     16  NAS VF1 A 407     121.010 152.821 143.692  0.00  0.00    -0.391 NA
ATOM     17  CBE VF1 A 407     119.715 154.561 142.947  0.00  0.00    +0.789 C 
ATOM     18  CAF VF1 A 407     118.999 155.107 141.745  0.00  0.00    -0.272 C 
ATOM     19  CAE VF1 A 407     118.734 154.244 140.788  0.00  0.00    +0.097 C 
ATOM     20  CBD VF1 A 407     119.211 152.860 141.043  0.00  0.00    -0.321 C 
ATOM     21  CAR VF1 A 407     118.553 152.435 142.352  0.00  0.00    +0.194 C 
ATOM     22  CBC VF1 A 407     118.835 153.389 143.516  0.00  0.00    -0.474 C 
ATOM     23  CAC VF1 A 407     117.548 153.897 144.202  0.00  0.00    +0.092 C 
ATOM     24  CAY VF1 A 407     119.867 152.952 144.591  0.00  0.00    +0.511 C 
ENDROOT
BRANCH  24  25
ATOM     25  CAV VF1 A 407     119.576 151.715 145.416  0.00  0.00    -0.218 A 
ATOM     26  CAJ VF1 A 407     120.202 150.541 145.044  0.00  0.00    +0.016 A 
ATOM     27  CAH VF1 A 407     120.213 149.432 145.893  0.00  0.00    -0.002 A 
ATOM     28  CAG VF1 A 407     119.564 149.491 147.103  0.00  0.00    +0.017 A 
ATOM     29  CAI VF1 A 407     118.865 150.641 147.454  0.00  0.00    -0.051 A 
ATOM     30  CAK VF1 A 407     118.860 151.739 146.604  0.00  0.00    +0.120 A 
ENDBRANCH  24  25
BRANCH  17  31
ATOM     31  OAT VF1 A 407     119.981 155.577 143.890  0.00  0.00    -0.660 OA
ATOM     32  CAA VF1 A 407     120.294 156.916 143.383  0.00  0.00    +0.411 C 
ENDBRANCH  17  31
TORSDOF 2
ENDMDL
MODEL 2
REMARK VINA RESULT:    -7.618     19.961     23.579
REMARK INTER + INTRA:          -9.354
REMARK INTER:                  -8.677
REMARK INTRA:                  -0.677
REMARK UNBOUND:                -0.846
REMARK  Name = Output/Trash/BU72_ligand_ligand_intermediary.pdb
REMARK  2 active torsions:
REMARK  status: ('A' for Active; 'I' for Inactive)
REMARK    1  A    between atoms: CBE_17  and  OAT_18
REMARK    2  A    between atoms: CAY_26  and  CAV_27
REMARK                            x       y       z     vdW  Elec       q    Type
REMARK                         _______ _______ _______ _____ _____    ______ ____
ROOT
ATOM      1  CAP VF1 A 407     130.434 142.837 125.950  0.00  0.00    -0.017 C 
ATOM      2  CAO VF1 A 407     130.854 142.468 127.358  0.00  0.00    +0.278 C 
ATOM      3  NBB VF1 A 407     132.313 142.246 127.428  0.00  0.00    -0.604 NA
ATOM      4  CAB VF1 A 407     132.671 141.785 128.761  0.00  0.00    +0.239 C 
ATOM      5  CAZ VF1 A 407     133.057 143.465 127.055  0.00  0.00    +0.492 C 
ATOM      6  CAQ VF1 A 407     132.774 144.720 127.883  0.00  0.00    -0.201 C 
ATOM      7  CAW VF1 A 407     131.654 145.589 127.359  0.00  0.00    -0.014 A 
ATOM      8  CAM VF1 A 407     131.301 146.746 128.049  0.00  0.00    +0.124 A 
ATOM      9  CAL VF1 A 407     130.264 147.570 127.614  0.00  0.00    -0.383 A 
ATOM     10  CAU VF1 A 407     129.537 147.203 126.504  0.00  0.00    +0.847 A 
ATOM     11  OAD VF1 A 407     128.500 147.891 125.998  0.00  0.00    -0.392 OA
ATOM     12  CAN VF1 A 407     129.867 146.035 125.821  0.00  0.00    -0.351 A 
ATOM     13  CAX VF1 A 407     130.939 145.244 126.208  0.00  0.00    +0.008 A 
ATOM     14  CBF VF1 A 407     131.295 143.983 125.390  0.00  0.00    +0.095 C 
ATOM     15  CBA VF1 A 407     131.077 144.115 123.870  0.00  0.00    +0.021 C 
ATOM     16  NAS VF1 A 407     130.758 142.765 123.328  0.00  0.00    -0.391 NA
ATOM     17  CBE VF1 A 407     132.370 144.377 123.080  0.00  0.00    +0.789 C 
ATOM     18  CAF VF1 A 407     133.290 145.292 123.835  0.00  0.00    -0.272 C 
ATOM     19  CAE VF1 A 407     133.533 144.964 125.086  0.00  0.00    +0.097 C 
ATOM     20  CBD VF1 A 407     132.833 143.744 125.562  0.00  0.00    -0.321 C 
ATOM     21  CAR VF1 A 407     133.267 142.628 124.616  0.00  0.00    +0.194 C 
ATOM     22  CBC VF1 A 407     132.998 142.937 123.141  0.00  0.00    -0.474 C 
ATOM     23  CAC VF1 A 407     134.259 142.805 122.259  0.00  0.00    +0.092 C 
ATOM     24  CAY VF1 A 407     131.797 142.235 122.451  0.00  0.00    +0.511 C 
ENDROOT
BRANCH  24  25
ATOM     25  CAV VF1 A 407     131.808 140.723 122.337  0.00  0.00    -0.218 A 
ATOM     26  CAJ VF1 A 407     130.784 140.032 122.955  0.00  0.00    +0.016 A 
ATOM     27  CAH VF1 A 407     130.559 138.682 122.677  0.00  0.00    -0.002 A 
ATOM     28  CAG VF1 A 407     131.386 138.016 121.805  0.00  0.00    +0.017 A 
ATOM     29  CAI VF1 A 407     132.467 138.682 121.237  0.00  0.00    -0.051 A 
ATOM     30  CAK VF1 A 407     132.682 140.024 121.518  0.00  0.00    +0.120 A 
ENDBRANCH  24  25
BRANCH  17  31
ATOM     31  OAT VF1 A 407     132.150 144.842 121.766  0.00  0.00    -0.660 OA
ATOM     32  CAA VF1 A 407     132.639 146.180 121.423  0.00  0.00    +0.411 C 
ENDBRANCH  17  31
TORSDOF 2
ENDMDL
MODEL 3
REMARK VINA RESULT:    -7.500     20.780     24.016
REMARK INTER + INTRA:          -9.223
REMARK INTER:                  -8.794
REMARK INTRA:                  -0.428
REMARK UNBOUND:                -0.846
REMARK  Name = Output/Trash/BU72_ligand_ligand_intermediary.pdb
REMARK  2 active torsions:
REMARK  status: ('A' for Active; 'I' for Inactive)
REMARK    1  A    between atoms: CBE_17  and  OAT_18
REMARK    2  A    between atoms: CAY_26  and  CAV_27
REMARK                            x       y       z     vdW  Elec       q    Type
REMARK                         _______ _______ _______ _____ _____    ______ ____
ROOT
ATOM      1  CAP VF1 A 407     130.878 142.896 123.163  0.00  0.00    -0.017 C 
ATOM      2  CAO VF1 A 407     131.491 143.557 121.945  0.00  0.00    +0.278 C 
ATOM      3  NBB VF1 A 407     132.812 144.131 122.271  0.00  0.00    -0.604 NA
ATOM      4  CAB VF1 A 407     133.326 144.855 121.117  0.00  0.00    +0.239 C 
ATOM      5  CAZ VF1 A 407     133.753 143.088 122.722  0.00  0.00    +0.492 C 
ATOM      6  CAQ VF1 A 407     134.015 141.936 121.749  0.00  0.00    -0.201 C 
ATOM      7  CAW VF1 A 407     133.082 140.755 121.895  0.00  0.00    -0.014 A 
ATOM      8  CAM VF1 A 407     133.220 139.661 121.045  0.00  0.00    +0.124 A 
ATOM      9  CAL VF1 A 407     132.374 138.557 121.131  0.00  0.00    -0.383 A 
ATOM     10  CAU VF1 A 407     131.343 138.572 122.043  0.00  0.00    +0.847 A 
ATOM     11  OAD VF1 A 407     130.443 137.587 122.207  0.00  0.00    -0.392 OA
ATOM     12  CAN VF1 A 407     131.181 139.672 122.880  0.00  0.00    -0.351 A 
ATOM     13  CAX VF1 A 407     132.059 140.746 122.848  0.00  0.00    +0.008 A 
ATOM     14  CBF VF1 A 407     131.866 141.922 123.830  0.00  0.00    +0.095 C 
ATOM     15  CBA VF1 A 407     131.353 141.521 125.227  0.00  0.00    +0.021 C 
ATOM     16  NAS VF1 A 407     130.567 142.661 125.778  0.00  0.00    -0.391 NA
ATOM     17  CBE VF1 A 407     132.455 141.467 126.299  0.00  0.00    +0.789 C 
ATOM     18  CAF VF1 A 407     133.735 140.921 125.733  0.00  0.00    -0.272 C 
ATOM     19  CAE VF1 A 407     134.157 141.477 124.617  0.00  0.00    +0.097 C 
ATOM     20  CBD VF1 A 407     133.280 142.548 124.079  0.00  0.00    -0.321 C 
ATOM     21  CAR VF1 A 407     133.171 143.586 125.193  0.00  0.00    +0.194 C 
ATOM     22  CBC VF1 A 407     132.668 143.009 126.519  0.00  0.00    -0.474 C 
ATOM     23  CAC VF1 A 407     133.613 143.311 127.702  0.00  0.00    +0.092 C 
ATOM     24  CAY VF1 A 407     131.198 143.293 126.933  0.00  0.00    +0.511 C 
ENDROOT
BRANCH  24  25
ATOM     25  CAV VF1 A 407     130.775 144.729 127.168  0.00  0.00    -0.218 A 
ATOM     26  CAJ VF1 A 407     131.576 145.501 127.987  0.00  0.00    +0.016 A 
ATOM     27  CAH VF1 A 407     131.423 146.889 128.040  0.00  0.00    -0.002 A 
ATOM     28  CAG VF1 A 407     130.440 147.497 127.298  0.00  0.00    +0.017 A 
ATOM     29  CAI VF1 A 407     129.578 146.721 126.530  0.00  0.00    -0.051 A 
ATOM     30  CAK VF1 A 407     129.738 145.343 126.482  0.00  0.00    +0.120 A 
ENDBRANCH  24  25
BRANCH  17  31
ATOM     31  OAT VF1 A 407     132.076 140.776 127.469  0.00  0.00    -0.660 OA
ATOM     32  CAA VF1 A 407     132.585 139.414 127.655  0.00  0.00    +0.411 C 
ENDBRANCH  17  31
TORSDOF 2
ENDMDL
MODEL 4
REMARK VINA RESULT:    -6.858      1.812      2.304
REMARK INTER + INTRA:          -8.505
REMARK INTER:                  -7.756
REMARK INTRA:                  -0.749
REMARK UNBOUND:                -0.846
REMARK  Name = Output/Trash/BU72_ligand_ligand_intermediary.pdb
REMARK  2 active torsions:
REMARK  status: ('A' for Active; 'I' for Inactive)
REMARK    1  A    between atoms: CBE_17  and  OAT_18
REMARK    2  A    between atoms: CAY_26  and  CAV_27
REMARK                            x       y       z     vdW  Elec       q    Type
REMARK                         _______ _______ _______ _____ _____    ______ ____
ROOT
ATOM      1  CAP VF1 A 407     121.481 151.947 140.465  0.00  0.00    -0.017 C 
ATOM      2  CAO VF1 A 407     121.249 151.515 139.032  0.00  0.00    +0.278 C 
ATOM      3  NBB VF1 A 407     119.968 152.051 138.525  0.00  0.00    -0.604 NA
ATOM      4  CAB VF1 A 407     119.718 151.529 137.189  0.00  0.00    +0.239 C 
ATOM      5  CAZ VF1 A 407     119.962 153.526 138.544  0.00  0.00    +0.492 C 
ATOM      6  CAQ VF1 A 407     121.065 154.226 137.746  0.00  0.00    -0.201 C 
ATOM      7  CAW VF1 A 407     122.330 154.507 138.523  0.00  0.00    -0.014 A 
ATOM      8  CAM VF1 A 407     123.406 155.123 137.887  0.00  0.00    +0.124 A 
ATOM      9  CAL VF1 A 407     124.598 155.387 138.557  0.00  0.00    -0.383 A 
ATOM     10  CAU VF1 A 407     124.736 154.982 139.866  0.00  0.00    +0.847 A 
ATOM     11  OAD VF1 A 407     125.839 155.151 140.614  0.00  0.00    -0.392 OA
ATOM     12  CAN VF1 A 407     123.676 154.344 140.503  0.00  0.00    -0.351 A 
ATOM     13  CAX VF1 A 407     122.462 154.136 139.865  0.00  0.00    +0.008 A 
ATOM     14  CBF VF1 A 407     121.299 153.466 140.630  0.00  0.00    +0.095 C 
ATOM     15  CBA VF1 A 407     121.214 153.830 142.125  0.00  0.00    +0.021 C 
ATOM     16  NAS VF1 A 407     120.604 152.679 142.849  0.00  0.00    -0.391 NA
ATOM     17  CBE VF1 A 407     120.145 154.890 142.444  0.00  0.00    +0.789 C 
ATOM     18  CAF VF1 A 407     120.077 155.932 141.365  0.00  0.00    -0.272 C 
ATOM     19  CAE VF1 A 407     119.976 155.482 140.132  0.00  0.00    +0.097 C 
ATOM     20  CBD VF1 A 407     119.968 154.003 140.003  0.00  0.00    -0.321 C 
ATOM     21  CAR VF1 A 407     118.795 153.523 140.852  0.00  0.00    +0.194 C 
ATOM     22  CBC VF1 A 407     118.858 153.998 142.306  0.00  0.00    -0.474 C 
ATOM     23  CAC VF1 A 407     117.577 154.736 142.754  0.00  0.00    +0.092 C 
ATOM     24  CAY VF1 A 407     119.283 152.975 143.395  0.00  0.00    +0.511 C 
ENDROOT
BRANCH  24  25
ATOM     25  CAV VF1 A 407     118.414 151.754 143.623  0.00  0.00    -0.218 A 
ATOM     26  CAJ VF1 A 407     117.275 151.919 144.386  0.00  0.00    +0.016 A 
ATOM     27  CAH VF1 A 407     116.284 150.935 144.420  0.00  0.00    -0.002 A 
ATOM     28  CAG VF1 A 407     116.455 149.768 143.714  0.00  0.00    +0.017 A 
ATOM     29  CAI VF1 A 407     117.632 149.560 143.005  0.00  0.00    -0.051 A 
ATOM     30  CAK VF1 A 407     118.611 150.543 142.976  0.00  0.00    +0.120 A 
ENDBRANCH  24  25
BRANCH  17  31
ATOM     31  OAT VF1 A 407     120.291 155.479 143.717  0.00  0.00    -0.660 OA
ATOM     32  CAA VF1 A 407     120.460 156.934 143.783  0.00  0.00    +0.411 C 
ENDBRANCH  17  31
TORSDOF 2
ENDMDL
MODEL 5
REMARK VINA RESULT:    -6.513      2.459      4.707
REMARK INTER + INTRA:          -8.120
REMARK INTER:                  -7.464
REMARK INTRA:                  -0.656
REMARK UNBOUND:                -0.846
REMARK  Name = Output/Trash/BU72_ligand_ligand_intermediary.pdb
REMARK  2 active torsions:
REMARK  status: ('A' for Active; 'I' for Inactive)
REMARK    1  A    between atoms: CBE_17  and  OAT_18
REMARK    2  A    between atoms: CAY_26  and  CAV_27
REMARK                            x       y       z     vdW  Elec       q    Type
REMARK                         _______ _______ _______ _____ _____    ______ ____
ROOT
ATOM      1  CAP VF1 A 407     121.116 152.040 141.994  0.00  0.00    -0.017 C 
ATOM      2  CAO VF1 A 407     120.764 150.870 142.889  0.00  0.00    +0.278 C 
ATOM      3  NBB VF1 A 407     119.898 151.307 144.003  0.00  0.00    -0.604 NA
ATOM      4  CAB VF1 A 407     119.667 150.189 144.907  0.00  0.00    +0.239 C 
ATOM      5  CAZ VF1 A 407     118.630 151.874 143.505  0.00  0.00    +0.492 C 
ATOM      6  CAQ VF1 A 407     117.770 150.962 142.626  0.00  0.00    -0.201 C 
ATOM      7  CAW VF1 A 407     118.060 151.049 141.146  0.00  0.00    -0.014 A 
ATOM      8  CAM VF1 A 407     117.348 150.245 140.258  0.00  0.00    +0.124 A 
ATOM      9  CAL VF1 A 407     117.591 150.278 138.886  0.00  0.00    -0.383 A 
ATOM     10  CAU VF1 A 407     118.596 151.085 138.402  0.00  0.00    +0.847 A 
ATOM     11  OAD VF1 A 407     118.949 151.188 137.109  0.00  0.00    -0.392 OA
ATOM     12  CAN VF1 A 407     119.329 151.874 139.284  0.00  0.00    -0.351 A 
ATOM     13  CAX VF1 A 407     119.051 151.898 140.643  0.00  0.00    +0.008 A 
ATOM     14  CBF VF1 A 407     119.861 152.825 141.574  0.00  0.00    +0.095 C 
ATOM     15  CBA VF1 A 407     120.264 154.176 140.952  0.00  0.00    +0.021 C 
ATOM     16  NAS VF1 A 407     121.538 154.618 141.586  0.00  0.00    -0.391 NA
ATOM     17  CBE VF1 A 407     119.373 155.350 141.391  0.00  0.00    +0.789 C 
ATOM     18  CAF VF1 A 407     117.938 154.926 141.512  0.00  0.00    -0.272 C 
ATOM     19  CAE VF1 A 407     117.714 153.841 142.224  0.00  0.00    +0.097 C 
ATOM     20  CBD VF1 A 407     118.930 153.193 142.779  0.00  0.00    -0.321 C 
ATOM     21  CAR VF1 A 407     119.615 154.263 143.623  0.00  0.00    +0.194 C 
ATOM     22  CBC VF1 A 407     119.921 155.549 142.851  0.00  0.00    -0.474 C 
ATOM     23  CAC VF1 A 407     119.345 156.810 143.531  0.00  0.00    +0.092 C 
ATOM     24  CAY VF1 A 407     121.388 155.811 142.413  0.00  0.00    +0.511 C 
ENDROOT
BRANCH  24  25
ATOM     25  CAV VF1 A 407     122.449 155.967 143.484  0.00  0.00    -0.218 A 
ATOM     26  CAJ VF1 A 407     123.227 157.107 143.446  0.00  0.00    +0.016 A 
ATOM     27  CAH VF1 A 407     124.029 157.466 144.532  0.00  0.00    -0.002 A 
ATOM     28  CAG VF1 A 407     124.076 156.659 145.643  0.00  0.00    +0.017 A 
ATOM     29  CAI VF1 A 407     123.357 155.469 145.661  0.00  0.00    -0.051 A 
ATOM     30  CAK VF1 A 407     122.562 155.121 144.577  0.00  0.00    +0.120 A 
ENDBRANCH  24  25
BRANCH  17  31
ATOM     31  OAT VF1 A 407     119.502 156.496 140.579  0.00  0.00    -0.660 OA
ATOM     32  CAA VF1 A 407     118.276 157.103 140.052  0.00  0.00    +0.411 C 
ENDBRANCH  17  31
TORSDOF 2
ENDMDL
MODEL 6
REMARK VINA RESULT:    -6.227     20.269     22.704
REMARK INTER + INTRA:          -7.802
REMARK INTER:                  -6.975
REMARK INTRA:                  -0.827
REMARK UNBOUND:                -0.846
REMARK  Name = Output/Trash/BU72_ligand_ligand_intermediary.pdb
REMARK  2 active torsions:
REMARK  status: ('A' for Active; 'I' for Inactive)
REMARK    1  A    between atoms: CBE_17  and  OAT_18
REMARK    2  A    between atoms: CAY_26  and  CAV_27
REMARK                            x       y       z     vdW  Elec       q    Type
REMARK                         _______ _______ _______ _____ _____    ______ ____
ROOT
ATOM      1  CAP VF1 A 407     127.379 130.036 138.254  0.00  0.00    -0.017 C 
ATOM      2  CAO VF1 A 407     127.140 129.854 136.769  0.00  0.00    +0.278 C 
ATOM      3  NBB VF1 A 407     126.587 131.088 136.173  0.00  0.00    -0.604 NA
ATOM      4  CAB VF1 A 407     126.263 130.848 134.773  0.00  0.00    +0.239 C 
ATOM      5  CAZ VF1 A 407     127.519 132.221 136.330  0.00  0.00    +0.492 C 
ATOM      6  CAQ VF1 A 407     128.918 132.046 135.733  0.00  0.00    -0.201 C 
ATOM      7  CAW VF1 A 407     129.939 131.447 136.672  0.00  0.00    -0.014 A 
ATOM      8  CAM VF1 A 407     131.239 131.225 136.223  0.00  0.00    +0.124 A 
ATOM      9  CAL VF1 A 407     132.211 130.660 137.047  0.00  0.00    -0.383 A 
ATOM     10  CAU VF1 A 407     131.863 130.263 138.319  0.00  0.00    +0.847 A 
ATOM     11  OAD VF1 A 407     132.695 129.683 139.201  0.00  0.00    -0.392 OA
ATOM     12  CAN VF1 A 407     130.561 130.458 138.768  0.00  0.00    -0.351 A 
ATOM     13  CAX VF1 A 407     129.603 131.079 137.979  0.00  0.00    +0.008 A 
ATOM     14  CBF VF1 A 407     128.184 131.316 138.540  0.00  0.00    +0.095 C 
ATOM     15  CBA VF1 A 407     128.130 131.652 140.043  0.00  0.00    +0.021 C 
ATOM     16  NAS VF1 A 407     126.829 131.164 140.581  0.00  0.00    -0.391 NA
ATOM     17  CBE VF1 A 407     127.949 133.150 140.337  0.00  0.00    +0.789 C 
ATOM     18  CAF VF1 A 407     128.721 133.991 139.360  0.00  0.00    -0.272 C 
ATOM     19  CAE VF1 A 407     128.540 133.710 138.087  0.00  0.00    +0.097 C 
ATOM     20  CBD VF1 A 407     127.611 132.583 137.819  0.00  0.00    -0.321 C 
ATOM     21  CAR VF1 A 407     126.292 132.972 138.480  0.00  0.00    +0.194 C 
ATOM     22  CBC VF1 A 407     126.427 133.296 139.970  0.00  0.00    -0.474 C 
ATOM     23  CAC VF1 A 407     125.862 134.686 140.336  0.00  0.00    +0.092 C 
ATOM     24  CAY VF1 A 407     125.937 132.241 140.998  0.00  0.00    +0.511 C 
ENDROOT
BRANCH  24  25
ATOM     25  CAV VF1 A 407     124.468 131.866 141.009  0.00  0.00    -0.218 A 
ATOM     26  CAJ VF1 A 407     124.117 130.653 140.450  0.00  0.00    +0.016 A 
ATOM     27  CAH VF1 A 407     122.849 130.106 140.658  0.00  0.00    -0.002 A 
ATOM     28  CAG VF1 A 407     121.919 130.796 141.398  0.00  0.00    +0.017 A 
ATOM     29  CAI VF1 A 407     122.236 132.053 141.900  0.00  0.00    -0.051 A 
ATOM     30  CAK VF1 A 407     123.499 132.589 141.690  0.00  0.00    +0.120 A 
ENDBRANCH  24  25
BRANCH  17  31
ATOM     31  OAT VF1 A 407     128.246 133.509 141.668  0.00  0.00    -0.660 OA
ATOM     32  CAA VF1 A 407     129.265 134.539 141.889  0.00  0.00    +0.411 C 
ENDBRANCH  17  31
TORSDOF 2
ENDMDL
MODEL 7
REMARK VINA RESULT:    -6.107     18.659     21.783
REMARK INTER + INTRA:          -7.667
REMARK INTER:                  -6.874
REMARK INTRA:                  -0.793
REMARK UNBOUND:                -0.846
REMARK  Name = Output/Trash/BU72_ligand_ligand_intermediary.pdb
REMARK  2 active torsions:
REMARK  status: ('A' for Active; 'I' for Inactive)
REMARK    1  A    between atoms: CBE_17  and  OAT_18
REMARK    2  A    between atoms: CAY_26  and  CAV_27
REMARK                            x       y       z     vdW  Elec       q    Type
REMARK                         _______ _______ _______ _____ _____    ______ ____
ROOT
ATOM      1  CAP VF1 A 407     125.723 134.356 140.040  0.00  0.00    -0.017 C 
ATOM      2  CAO VF1 A 407     124.392 133.802 140.504  0.00  0.00    +0.278 C 
ATOM      3  NBB VF1 A 407     124.482 132.345 140.731  0.00  0.00    -0.604 NA
ATOM      4  CAB VF1 A 407     123.164 131.823 141.065  0.00  0.00    +0.239 C 
ATOM      5  CAZ VF1 A 407     125.475 132.027 141.774  0.00  0.00    +0.492 C 
ATOM      6  CAQ VF1 A 407     125.251 132.661 143.149  0.00  0.00    -0.201 C 
ATOM      7  CAW VF1 A 407     125.906 134.010 143.340  0.00  0.00    -0.014 A 
ATOM      8  CAM VF1 A 407     125.748 134.685 144.549  0.00  0.00    +0.124 A 
ATOM      9  CAL VF1 A 407     126.319 135.938 144.766  0.00  0.00    -0.383 A 
ATOM     10  CAU VF1 A 407     127.010 136.547 143.742  0.00  0.00    +0.847 A 
ATOM     11  OAD VF1 A 407     127.583 137.760 143.813  0.00  0.00    -0.392 OA
ATOM     12  CAN VF1 A 407     127.152 135.890 142.524  0.00  0.00    -0.351 A 
ATOM     13  CAX VF1 A 407     126.645 134.615 142.319  0.00  0.00    +0.008 A 
ATOM     14  CBF VF1 A 407     126.870 133.909 140.964  0.00  0.00    +0.095 C 
ATOM     15  CBA VF1 A 407     128.230 134.200 140.301  0.00  0.00    +0.021 C 
ATOM     16  NAS VF1 A 407     128.057 134.099 138.824  0.00  0.00    -0.391 NA
ATOM     17  CBE VF1 A 407     129.262 133.075 140.485  0.00  0.00    +0.789 C 
ATOM     18  CAF VF1 A 407     129.158 132.463 141.853  0.00  0.00    -0.272 C 
ATOM     19  CAE VF1 A 407     127.952 132.096 142.231  0.00  0.00    +0.097 C 
ATOM     20  CBD VF1 A 407     126.875 132.368 141.245  0.00  0.00    -0.321 C 
ATOM     21  CAR VF1 A 407     127.290 131.636 139.973  0.00  0.00    +0.194 C 
ATOM     22  CBC VF1 A 407     128.679 132.030 139.466  0.00  0.00    -0.474 C 
ATOM     23  CAC VF1 A 407     129.613 130.815 139.267  0.00  0.00    +0.092 C 
ATOM     24  CAY VF1 A 407     128.773 132.972 138.235  0.00  0.00    +0.511 C 
ENDROOT
BRANCH  24  25
ATOM     25  CAV VF1 A 407     128.208 132.496 136.912  0.00  0.00    -0.218 A 
ATOM     26  CAJ VF1 A 407     129.108 132.174 135.915  0.00  0.00    +0.016 A 
ATOM     27  CAH VF1 A 407     128.700 131.475 134.776  0.00  0.00    -0.002 A 
ATOM     28  CAG VF1 A 407     127.379 131.130 134.622  0.00  0.00    +0.017 A 
ATOM     29  CAI VF1 A 407     126.451 131.517 135.583  0.00  0.00    -0.051 A 
ATOM     30  CAK VF1 A 407     126.865 132.211 136.712  0.00  0.00    +0.120 A 
ENDBRANCH  24  25
BRANCH  17  31
ATOM     31  OAT VF1 A 407     130.587 133.466 140.199  0.00  0.00    -0.660 OA
ATOM     32  CAA VF1 A 407     131.103 134.670 140.857  0.00  0.00    +0.411 C 
ENDBRANCH  17  31
TORSDOF 2
ENDMDL
MODEL 8
REMARK VINA RESULT:    -6.007     19.126     21.734
REMARK INTER + INTRA:          -7.555
REMARK INTER:                  -6.845
REMARK INTRA:                  -0.710
REMARK UNBOUND:                -0.846
REMARK  Name = Output/Trash/BU72_ligand_ligand_intermediary.pdb
REMARK  2 active torsions:
REMARK  status: ('A' for Active; 'I' for Inactive)
REMARK    1  A    between atoms: CBE_17  and  OAT_18
REMARK    2  A    between atoms: CAY_26  and  CAV_27
REMARK                            x       y       z     vdW  Elec       q    Type
REMARK                         _______ _______ _______ _____ _____    ______ ____
ROOT
ATOM      1  CAP VF1 A 407     128.608 133.722 138.657  0.00  0.00    -0.017 C 
ATOM      2  CAO VF1 A 407     129.947 133.054 138.424  0.00  0.00    +0.278 C 
ATOM      3  NBB VF1 A 407     130.296 132.173 139.557  0.00  0.00    -0.604 NA
ATOM      4  CAB VF1 A 407     131.634 131.633 139.359  0.00  0.00    +0.239 C 
ATOM      5  CAZ VF1 A 407     129.297 131.101 139.729  0.00  0.00    +0.492 C 
ATOM      6  CAQ VF1 A 407     129.065 130.182 138.527  0.00  0.00    -0.201 C 
ATOM      7  CAW VF1 A 407     127.986 130.643 137.574  0.00  0.00    -0.014 A 
ATOM      8  CAM VF1 A 407     127.708 129.890 136.435  0.00  0.00    +0.124 A 
ATOM      9  CAL VF1 A 407     126.735 130.283 135.518  0.00  0.00    -0.383 A 
ATOM     10  CAU VF1 A 407     126.069 131.472 135.715  0.00  0.00    +0.847 A 
ATOM     11  OAD VF1 A 407     125.131 131.976 134.896  0.00  0.00    -0.392 OA
ATOM     12  CAN VF1 A 407     126.357 132.243 136.837  0.00  0.00    -0.351 A 
ATOM     13  CAX VF1 A 407     127.277 131.828 137.790  0.00  0.00    +0.008 A 
ATOM     14  CBF VF1 A 407     127.527 132.696 139.042  0.00  0.00    +0.095 C 
ATOM     15  CBA VF1 A 407     126.280 133.419 139.589  0.00  0.00    +0.021 C 
ATOM     16  NAS VF1 A 407     126.726 134.677 140.250  0.00  0.00    -0.391 NA
ATOM     17  CBE VF1 A 407     125.652 132.730 140.812  0.00  0.00    +0.789 C 
ATOM     18  CAF VF1 A 407     125.714 131.235 140.683  0.00  0.00    -0.272 C 
ATOM     19  CAE VF1 A 407     126.891 130.729 140.380  0.00  0.00    +0.097 C 
ATOM     20  CBD VF1 A 407     127.973 131.728 140.190  0.00  0.00    -0.321 C 
ATOM     21  CAR VF1 A 407     128.041 132.512 141.497  0.00  0.00    +0.194 C 
ATOM     22  CBC VF1 A 407     126.707 133.143 141.902  0.00  0.00    -0.474 C 
ATOM     23  CAC VF1 A 407     126.265 132.751 143.329  0.00  0.00    +0.092 C 
ATOM     24  CAY VF1 A 407     126.525 134.671 141.696  0.00  0.00    +0.511 C 
ENDROOT
BRANCH  24  25
ATOM     25  CAV VF1 A 407     127.431 135.619 142.456  0.00  0.00    -0.218 A 
ATOM     26  CAJ VF1 A 407     128.778 135.593 142.151  0.00  0.00    +0.016 A 
ATOM     27  CAH VF1 A 407     129.635 136.604 142.592  0.00  0.00    -0.002 A 
ATOM     28  CAG VF1 A 407     129.144 137.625 143.371  0.00  0.00    +0.017 A 
ATOM     29  CAI VF1 A 407     127.806 137.620 143.748  0.00  0.00    -0.051 A 
ATOM     30  CAK VF1 A 407     126.962 136.611 143.305  0.00  0.00    +0.120 A 
ENDBRANCH  24  25
BRANCH  17  31
ATOM     31  OAT VF1 A 407     124.342 133.166 141.099  0.00  0.00    -0.660 OA
ATOM     32  CAA VF1 A 407     123.269 132.167 141.081  0.00  0.00    +0.411 C 
ENDBRANCH  17  31
TORSDOF 2
ENDMDL
MODEL 9
REMARK VINA RESULT:    -6.006      2.873      5.394
REMARK INTER + INTRA:          -7.555
REMARK INTER:                  -6.706
REMARK INTRA:                  -0.849
REMARK UNBOUND:                -0.846
REMARK  Name = Output/Trash/BU72_ligand_ligand_intermediary.pdb
REMARK  2 active torsions:
REMARK  status: ('A' for Active; 'I' for Inactive)
REMARK    1  A    between atoms: CBE_17  and  OAT_18
REMARK    2  A    between atoms: CAY_26  and  CAV_27
REMARK                            x       y       z     vdW  Elec       q    Type
REMARK                         _______ _______ _______ _____ _____    ______ ____
ROOT
ATOM      1  CAP VF1 A 407     121.476 152.158 144.424  0.00  0.00    -0.017 C 
ATOM      2  CAO VF1 A 407     121.081 151.066 145.396  0.00  0.00    +0.278 C 
ATOM      3  NBB VF1 A 407     120.232 151.609 146.476  0.00  0.00    -0.604 NA
ATOM      4  CAB VF1 A 407     119.962 150.565 147.454  0.00  0.00    +0.239 C 
ATOM      5  CAZ VF1 A 407     118.986 152.187 145.938  0.00  0.00    +0.492 C 
ATOM      6  CAQ VF1 A 407     118.093 151.250 145.122  0.00  0.00    -0.201 C 
ATOM      7  CAW VF1 A 407     118.384 151.225 143.640  0.00  0.00    -0.014 A 
ATOM      8  CAM VF1 A 407     117.642 150.389 142.807  0.00  0.00    +0.124 A 
ATOM      9  CAL VF1 A 407     117.885 150.319 141.437  0.00  0.00    -0.383 A 
ATOM     10  CAU VF1 A 407     118.919 151.055 140.901  0.00  0.00    +0.847 A 
ATOM     11  OAD VF1 A 407     119.274 151.056 139.605  0.00  0.00    -0.392 OA
ATOM     12  CAN VF1 A 407     119.681 151.874 141.728  0.00  0.00    -0.351 A 
ATOM     13  CAX VF1 A 407     119.405 152.000 143.082  0.00  0.00    +0.008 A 
ATOM     14  CBF VF1 A 407     120.250 152.959 143.950  0.00  0.00    +0.095 C 
ATOM     15  CBA VF1 A 407     120.702 154.249 143.237  0.00  0.00    +0.021 C 
ATOM     16  NAS VF1 A 407     121.991 154.685 143.842  0.00  0.00    -0.391 NA
ATOM     17  CBE VF1 A 407     119.855 155.482 143.594  0.00  0.00    +0.789 C 
ATOM     18  CAF VF1 A 407     118.405 155.119 143.741  0.00  0.00    -0.272 C 
ATOM     19  CAE VF1 A 407     118.142 154.095 144.525  0.00  0.00    +0.097 C 
ATOM     20  CBD VF1 A 407     119.334 153.442 145.124  0.00  0.00    -0.321 C 
ATOM     21  CAR VF1 A 407     120.059 154.541 145.895  0.00  0.00    +0.194 C 
ATOM     22  CBC VF1 A 407     120.411 155.759 145.038  0.00  0.00    -0.474 C 
ATOM     23  CAC VF1 A 407     119.882 157.084 145.630  0.00  0.00    +0.092 C 
ATOM     24  CAY VF1 A 407     121.886 155.937 144.585  0.00  0.00    +0.511 C 
ENDROOT
BRANCH  24  25
ATOM     25  CAV VF1 A 407     122.953 156.126 145.645  0.00  0.00    -0.218 A 
ATOM     26  CAJ VF1 A 407     123.468 154.989 146.238  0.00  0.00    +0.016 A 
ATOM     27  CAH VF1 A 407     124.630 155.046 147.012  0.00  0.00    -0.002 A 
ATOM     28  CAG VF1 A 407     125.255 156.252 147.219  0.00  0.00    +0.017 A 
ATOM     29  CAI VF1 A 407     124.701 157.413 146.691  0.00  0.00    -0.051 A 
ATOM     30  CAK VF1 A 407     123.547 157.348 145.923  0.00  0.00    +0.120 A 
ENDBRANCH  24  25
BRANCH  17  31
ATOM     31  OAT VF1 A 407     120.025 156.564 142.705  0.00  0.00    -0.660 OA
ATOM     32  CAA VF1 A 407     119.214 156.582 141.484  0.00  0.00    +0.411 C 
ENDBRANCH  17  31
TORSDOF 2
ENDMDL
