MODEL 1
REMARK VINA RESULT:   -10.095      0.000      0.000
REMARK INTER + INTRA:         -11.694
REMARK INTER:                 -11.275
REMARK INTRA:                  -0.419
REMARK UNBOUND:                -0.419
REMARK  Name = Output/Trash/BU72_ligand_ligand_intermediary.pdb
REMARK  2 active torsions:
REMARK  status: ('A' for Active; 'I' for Inactive)
REMARK    1  A    between atoms: CBE_17  and  OAT_18
REMARK    2  A    between atoms: CAY_26  and  CAV_27
REMARK                            x       y       z     vdW  Elec       q    Type
REMARK                         _______ _______ _______ _____ _____    ______ ____
ROOT
ATOM      1  CAP VF1 A 407     121.280 116.771  93.449  0.00  0.00    -0.017 C 
ATOM      2  CAO VF1 A 407     120.713 117.251  94.769  0.00  0.00    +0.278 C 
ATOM      3  NBB VF1 A 407     121.061 118.668  95.004  0.00  0.00    -0.604 NA
ATOM      4  CAB VF1 A 407     120.602 119.068  96.327  0.00  0.00    +0.239 C 
ATOM      5  CAZ VF1 A 407     120.506 119.536  93.949  0.00  0.00    +0.492 C 
ATOM      6  CAQ VF1 A 407     118.988 119.494  93.755  0.00  0.00    -0.201 C 
ATOM      7  CAW VF1 A 407     118.503 118.463  92.763  0.00  0.00    -0.014 A 
ATOM      8  CAM VF1 A 407     117.136 118.326  92.527  0.00  0.00    +0.124 A 
ATOM      9  CAL VF1 A 407     116.640 117.378  91.634  0.00  0.00    -0.383 A 
ATOM     10  CAU VF1 A 407     117.518 116.520  91.010  0.00  0.00    +0.847 A 
ATOM     11  OAD VF1 A 407     117.168 115.548  90.151  0.00  0.00    -0.392 OA
ATOM     12  CAN VF1 A 407     118.882 116.633  91.258  0.00  0.00    -0.351 A 
ATOM     13  CAX VF1 A 407     119.392 117.616  92.094  0.00  0.00    +0.008 A 
ATOM     14  CBF VF1 A 407     120.918 117.730  92.301  0.00  0.00    +0.095 C 
ATOM     15  CBA VF1 A 407     121.766 117.409  91.055  0.00  0.00    +0.021 C 
ATOM     16  NAS VF1 A 407     123.076 116.868  91.512  0.00  0.00    -0.391 NA
ATOM     17  CBE VF1 A 407     122.281 118.657  90.318  0.00  0.00    +0.789 C 
ATOM     18  CAF VF1 A 407     121.252 119.751  90.321  0.00  0.00    -0.272 C 
ATOM     19  CAE VF1 A 407     120.728 120.048  91.491  0.00  0.00    +0.097 C 
ATOM     20  CBD VF1 A 407     121.225 119.231  92.627  0.00  0.00    -0.321 C 
ATOM     21  CAR VF1 A 407     122.738 119.432  92.645  0.00  0.00    +0.194 C 
ATOM     22  CBC VF1 A 407     123.416 119.088  91.316  0.00  0.00    -0.474 C 
ATOM     23  CAC VF1 A 407     124.279 120.244  90.765  0.00  0.00    +0.092 C 
ATOM     24  CAY VF1 A 407     124.200 117.751  91.217  0.00  0.00    +0.511 C 
ENDROOT
BRANCH  24  25
ATOM     25  CAV VF1 A 407     125.406 117.549  92.113  0.00  0.00    -0.218 A 
ATOM     26  CAJ VF1 A 407     126.323 118.579  92.186  0.00  0.00    +0.016 A 
ATOM     27  CAH VF1 A 407     127.305 118.598  93.180  0.00  0.00    -0.002 A 
ATOM     28  CAG VF1 A 407     127.388 117.562  94.078  0.00  0.00    +0.017 A 
ATOM     29  CAI VF1 A 407     126.519 116.482  93.965  0.00  0.00    -0.051 A 
ATOM     30  CAK VF1 A 407     125.546 116.472  92.976  0.00  0.00    +0.120 A 
ENDBRANCH  24  25
BRANCH  17  31
ATOM     31  OAT VF1 A 407     122.746 118.395  89.012  0.00  0.00    -0.660 OA
ATOM     32  CAA VF1 A 407     121.885 117.609  88.124  0.00  0.00    +0.411 C 
ENDBRANCH  17  31
TORSDOF 2
ENDMDL
MODEL 2
REMARK VINA RESULT:    -9.919      0.813      1.100
REMARK INTER + INTRA:         -11.498
REMARK INTER:                 -10.611
REMARK INTRA:                  -0.888
REMARK UNBOUND:                -0.419
REMARK  Name = Output/Trash/BU72_ligand_ligand_intermediary.pdb
REMARK  2 active torsions:
REMARK  status: ('A' for Active; 'I' for Inactive)
REMARK    1  A    between atoms: CBE_17  and  OAT_18
REMARK    2  A    between atoms: CAY_26  and  CAV_27
REMARK                            x       y       z     vdW  Elec       q    Type
REMARK                         _______ _______ _______ _____ _____    ______ ____
ROOT
ATOM      1  CAP VF1 A 407     121.246 116.553  92.961  0.00  0.00    -0.017 C 
ATOM      2  CAO VF1 A 407     120.775 117.032  94.319  0.00  0.00    +0.278 C 
ATOM      3  NBB VF1 A 407     121.110 118.458  94.515  0.00  0.00    -0.604 NA
ATOM      4  CAB VF1 A 407     120.748 118.860  95.867  0.00  0.00    +0.239 C 
ATOM      5  CAZ VF1 A 407     120.454 119.305  93.501  0.00  0.00    +0.492 C 
ATOM      6  CAQ VF1 A 407     118.927 119.229  93.428  0.00  0.00    -0.201 C 
ATOM      7  CAW VF1 A 407     118.387 118.180  92.485  0.00  0.00    -0.014 A 
ATOM      8  CAM VF1 A 407     117.010 118.012  92.359  0.00  0.00    +0.124 A 
ATOM      9  CAL VF1 A 407     116.465 117.046  91.515  0.00  0.00    -0.383 A 
ATOM     10  CAU VF1 A 407     117.309 116.202  90.829  0.00  0.00    +0.847 A 
ATOM     11  OAD VF1 A 407     116.914 115.214  90.008  0.00  0.00    -0.392 OA
ATOM     12  CAN VF1 A 407     118.687 116.345  90.968  0.00  0.00    -0.351 A 
ATOM     13  CAX VF1 A 407     119.239 117.346  91.754  0.00  0.00    +0.008 A 
ATOM     14  CBF VF1 A 407     120.774 117.494  91.839  0.00  0.00    +0.095 C 
ATOM     15  CBA VF1 A 407     121.528 117.180  90.531  0.00  0.00    +0.021 C 
ATOM     16  NAS VF1 A 407     122.881 116.670  90.887  0.00  0.00    -0.391 NA
ATOM     17  CBE VF1 A 407     121.955 118.432  89.748  0.00  0.00    +0.789 C 
ATOM     18  CAF VF1 A 407     120.906 119.504  89.825  0.00  0.00    -0.272 C 
ATOM     19  CAE VF1 A 407     120.470 119.800  91.030  0.00  0.00    +0.097 C 
ATOM     20  CBD VF1 A 407     121.074 119.004  92.129  0.00  0.00    -0.321 C 
ATOM     21  CAR VF1 A 407     122.578 119.237  92.025  0.00  0.00    +0.194 C 
ATOM     22  CBC VF1 A 407     123.156 118.895  90.650  0.00  0.00    -0.474 C 
ATOM     23  CAC VF1 A 407     123.948 120.064  90.024  0.00  0.00    +0.092 C 
ATOM     24  CAY VF1 A 407     123.959 117.575  90.498  0.00  0.00    +0.511 C 
ENDROOT
BRANCH  24  25
ATOM     25  CAV VF1 A 407     125.236 117.405  91.297  0.00  0.00    -0.218 A 
ATOM     26  CAJ VF1 A 407     125.135 116.802  92.536  0.00  0.00    +0.016 A 
ATOM     27  CAH VF1 A 407     126.273 116.360  93.214  0.00  0.00    -0.002 A 
ATOM     28  CAG VF1 A 407     127.517 116.556  92.663  0.00  0.00    +0.017 A 
ATOM     29  CAI VF1 A 407     127.635 117.231  91.454  0.00  0.00    -0.051 A 
ATOM     30  CAK VF1 A 407     126.499 117.666  90.786  0.00  0.00    +0.120 A 
ENDBRANCH  24  25
BRANCH  17  31
ATOM     31  OAT VF1 A 407     122.321 118.169  88.411  0.00  0.00    -0.660 OA
ATOM     32  CAA VF1 A 407     121.403 117.370  87.594  0.00  0.00    +0.411 C 
ENDBRANCH  17  31
TORSDOF 2
ENDMDL
MODEL 3
REMARK VINA RESULT:    -9.491      2.121      6.910
REMARK INTER + INTRA:         -11.020
REMARK INTER:                 -10.322
REMARK INTRA:                  -0.698
REMARK UNBOUND:                -0.419
REMARK  Name = Output/Trash/BU72_ligand_ligand_intermediary.pdb
REMARK  2 active torsions:
REMARK  status: ('A' for Active; 'I' for Inactive)
REMARK    1  A    between atoms: CBE_17  and  OAT_18
REMARK    2  A    between atoms: CAY_26  and  CAV_27
REMARK                            x       y       z     vdW  Elec       q    Type
REMARK                         _______ _______ _______ _____ _____    ______ ____
ROOT
ATOM      1  CAP VF1 A 407     122.835 116.196  90.398  0.00  0.00    -0.017 C 
ATOM      2  CAO VF1 A 407     123.436 116.697  89.101  0.00  0.00    +0.278 C 
ATOM      3  NBB VF1 A 407     122.797 117.962  88.683  0.00  0.00    -0.604 NA
ATOM      4  CAB VF1 A 407     123.313 118.360  87.380  0.00  0.00    +0.239 C 
ATOM      5  CAZ VF1 A 407     122.993 119.019  89.693  0.00  0.00    +0.492 C 
ATOM      6  CAQ VF1 A 407     124.441 119.367  90.047  0.00  0.00    -0.201 C 
ATOM      7  CAW VF1 A 407     125.026 118.567  91.188  0.00  0.00    -0.014 A 
ATOM      8  CAM VF1 A 407     126.345 118.789  91.579  0.00  0.00    +0.124 A 
ATOM      9  CAL VF1 A 407     126.933 118.065  92.614  0.00  0.00    -0.383 A 
ATOM     10  CAU VF1 A 407     126.210 117.068  93.229  0.00  0.00    +0.847 A 
ATOM     11  OAD VF1 A 407     126.667 116.280  94.217  0.00  0.00    -0.392 OA
ATOM     12  CAN VF1 A 407     124.900 116.821  92.829  0.00  0.00    -0.351 A 
ATOM     13  CAX VF1 A 407     124.284 117.581  91.845  0.00  0.00    +0.008 A 
ATOM     14  CBF VF1 A 407     122.812 117.300  91.470  0.00  0.00    +0.095 C 
ATOM     15  CBA VF1 A 407     121.913 116.877  92.648  0.00  0.00    +0.021 C 
ATOM     16  NAS VF1 A 407     120.836 115.996  92.115  0.00  0.00    -0.391 NA
ATOM     17  CBE VF1 A 407     121.029 118.013  93.191  0.00  0.00    +0.789 C 
ATOM     18  CAF VF1 A 407     121.764 119.323  93.180  0.00  0.00    -0.272 C 
ATOM     19  CAE VF1 A 407     122.347 119.649  92.046  0.00  0.00    +0.097 C 
ATOM     20  CBD VF1 A 407     122.204 118.649  90.957  0.00  0.00    -0.321 C 
ATOM     21  CAR VF1 A 407     120.702 118.470  90.760  0.00  0.00    +0.194 C 
ATOM     22  CBC VF1 A 407     119.961 118.072  92.039  0.00  0.00    -0.474 C 
ATOM     23  CAC VF1 A 407     118.787 119.019  92.372  0.00  0.00    +0.092 C 
ATOM     24  CAY VF1 A 407     119.507 116.596  92.197  0.00  0.00    +0.511 C 
ENDROOT
BRANCH  24  25
ATOM     25  CAV VF1 A 407     118.506 116.034  91.206  0.00  0.00    -0.218 A 
ATOM     26  CAJ VF1 A 407     118.920 114.982  90.412  0.00  0.00    +0.016 A 
ATOM     27  CAH VF1 A 407     117.999 114.230  89.679  0.00  0.00    -0.002 A 
ATOM     28  CAG VF1 A 407     116.666 114.558  89.715  0.00  0.00    +0.017 A 
ATOM     29  CAI VF1 A 407     116.249 115.663  90.449  0.00  0.00    -0.051 A 
ATOM     30  CAK VF1 A 407     117.170 116.404  91.176  0.00  0.00    +0.120 A 
ENDBRANCH  24  25
BRANCH  17  31
ATOM     31  OAT VF1 A 407     120.477 117.746  94.461  0.00  0.00    -0.660 OA
ATOM     32  CAA VF1 A 407     120.854 118.626  95.570  0.00  0.00    +0.411 C 
ENDBRANCH  17  31
TORSDOF 2
ENDMDL
MODEL 4
REMARK VINA RESULT:    -8.999      2.011      4.496
REMARK INTER + INTRA:         -10.471
REMARK INTER:                  -9.606
REMARK INTRA:                  -0.865
REMARK UNBOUND:                -0.419
REMARK  Name = Output/Trash/BU72_ligand_ligand_intermediary.pdb
REMARK  2 active torsions:
REMARK  status: ('A' for Active; 'I' for Inactive)
REMARK    1  A    between atoms: CBE_17  and  OAT_18
REMARK    2  A    between atoms: CAY_26  and  CAV_27
REMARK                            x       y       z     vdW  Elec       q    Type
REMARK                         _______ _______ _______ _____ _____    ______ ____
ROOT
ATOM      1  CAP VF1 A 407     120.993 118.677  89.369  0.00  0.00    -0.017 C 
ATOM      2  CAO VF1 A 407     120.979 117.689  88.220  0.00  0.00    +0.278 C 
ATOM      3  NBB VF1 A 407     121.997 116.638  88.423  0.00  0.00    -0.604 NA
ATOM      4  CAB VF1 A 407     122.039 115.770  87.254  0.00  0.00    +0.239 C 
ATOM      5  CAZ VF1 A 407     121.739 115.874  89.658  0.00  0.00    +0.492 C 
ATOM      6  CAQ VF1 A 407     120.379 115.180  89.763  0.00  0.00    -0.201 C 
ATOM      7  CAW VF1 A 407     119.286 116.014  90.390  0.00  0.00    -0.014 A 
ATOM      8  CAM VF1 A 407     118.003 115.485  90.515  0.00  0.00    +0.124 A 
ATOM      9  CAL VF1 A 407     116.959 116.222  91.071  0.00  0.00    -0.383 A 
ATOM     10  CAU VF1 A 407     117.188 117.523  91.458  0.00  0.00    +0.847 A 
ATOM     11  OAD VF1 A 407     116.264 118.347  91.980  0.00  0.00    -0.392 OA
ATOM     12  CAN VF1 A 407     118.460 118.069  91.315  0.00  0.00    -0.351 A 
ATOM     13  CAX VF1 A 407     119.522 117.322  90.823  0.00  0.00    +0.008 A 
ATOM     14  CBF VF1 A 407     120.926 117.958  90.728  0.00  0.00    +0.095 C 
ATOM     15  CBA VF1 A 407     121.270 118.941  91.865  0.00  0.00    +0.021 C 
ATOM     16  NAS VF1 A 407     122.223 119.953  91.330  0.00  0.00    -0.391 NA
ATOM     17  CBE VF1 A 407     122.171 118.335  92.954  0.00  0.00    +0.789 C 
ATOM     18  CAF VF1 A 407     121.810 116.902  93.222  0.00  0.00    -0.272 C 
ATOM     19  CAE VF1 A 407     121.718 116.122  92.166  0.00  0.00    +0.097 C 
ATOM     20  CBD VF1 A 407     121.966 116.795  90.866  0.00  0.00    -0.321 C 
ATOM     21  CAR VF1 A 407     123.365 117.395  90.976  0.00  0.00    +0.194 C 
ATOM     22  CBC VF1 A 407     123.537 118.329  92.176  0.00  0.00    -0.474 C 
ATOM     23  CAC VF1 A 407     124.728 117.936  93.078  0.00  0.00    +0.092 C 
ATOM     24  CAY VF1 A 407     123.555 119.860  91.919  0.00  0.00    +0.511 C 
ENDROOT
BRANCH  24  25
ATOM     25  CAV VF1 A 407     124.661 120.439  91.058  0.00  0.00    -0.218 A 
ATOM     26  CAJ VF1 A 407     124.470 120.434  89.690  0.00  0.00    +0.016 A 
ATOM     27  CAH VF1 A 407     125.294 121.183  88.847  0.00  0.00    -0.002 A 
ATOM     28  CAG VF1 A 407     126.333 121.910  89.376  0.00  0.00    +0.017 A 
ATOM     29  CAI VF1 A 407     126.582 121.860  90.743  0.00  0.00    -0.051 A 
ATOM     30  CAK VF1 A 407     125.758 121.113  91.573  0.00  0.00    +0.120 A 
ENDBRANCH  24  25
BRANCH  17  31
ATOM     31  OAT VF1 A 407     122.204 119.087  94.148  0.00  0.00    -0.660 OA
ATOM     32  CAA VF1 A 407     120.971 119.176  94.935  0.00  0.00    +0.411 C 
ENDBRANCH  17  31
TORSDOF 2
ENDMDL
MODEL 5
REMARK VINA RESULT:    -8.885      2.281      3.360
REMARK INTER + INTRA:         -10.344
REMARK INTER:                  -9.456
REMARK INTRA:                  -0.887
REMARK UNBOUND:                -0.419
REMARK  Name = Output/Trash/BU72_ligand_ligand_intermediary.pdb
REMARK  2 active torsions:
REMARK  status: ('A' for Active; 'I' for Inactive)
REMARK    1  A    between atoms: CBE_17  and  OAT_18
REMARK    2  A    between atoms: CAY_26  and  CAV_27
REMARK                            x       y       z     vdW  Elec       q    Type
REMARK                         _______ _______ _______ _____ _____    ______ ____
ROOT
ATOM      1  CAP VF1 A 407     123.890 117.502  92.655  0.00  0.00    -0.017 C 
ATOM      2  CAO VF1 A 407     122.814 118.042  93.573  0.00  0.00    +0.278 C 
ATOM      3  NBB VF1 A 407     122.772 119.518  93.517  0.00  0.00    -0.604 NA
ATOM      4  CAB VF1 A 407     121.809 120.014  94.491  0.00  0.00    +0.239 C 
ATOM      5  CAZ VF1 A 407     122.463 119.993  92.155  0.00  0.00    +0.492 C 
ATOM      6  CAQ VF1 A 407     121.149 119.502  91.541  0.00  0.00    -0.201 C 
ATOM      7  CAW VF1 A 407     121.255 118.213  90.759  0.00  0.00    -0.014 A 
ATOM      8  CAM VF1 A 407     120.114 117.668  90.175  0.00  0.00    +0.124 A 
ATOM      9  CAL VF1 A 407     120.159 116.473  89.459  0.00  0.00    -0.383 A 
ATOM     10  CAU VF1 A 407     121.350 115.788  89.372  0.00  0.00    +0.847 A 
ATOM     11  OAD VF1 A 407     121.522 114.616  88.737  0.00  0.00    -0.392 OA
ATOM     12  CAN VF1 A 407     122.490 116.312  89.973  0.00  0.00    -0.351 A 
ATOM     13  CAX VF1 A 407     122.470 117.534  90.631  0.00  0.00    +0.008 A 
ATOM     14  CBF VF1 A 407     123.773 118.097  91.240  0.00  0.00    +0.095 C 
ATOM     15  CBA VF1 A 407     125.049 117.796  90.431  0.00  0.00    +0.021 C 
ATOM     16  NAS VF1 A 407     126.195 117.727  91.380  0.00  0.00    -0.391 NA
ATOM     17  CBE VF1 A 407     125.533 118.980  89.576  0.00  0.00    +0.789 C 
ATOM     18  CAF VF1 A 407     124.375 119.732  88.987  0.00  0.00    -0.272 C 
ATOM     19  CAE VF1 A 407     123.426 120.085  89.829  0.00  0.00    +0.097 C 
ATOM     20  CBD VF1 A 407     123.645 119.658  91.234  0.00  0.00    -0.321 C 
ATOM     21  CAR VF1 A 407     124.984 120.264  91.643  0.00  0.00    +0.194 C 
ATOM     22  CBC VF1 A 407     126.138 119.880  90.714  0.00  0.00    -0.474 C 
ATOM     23  CAC VF1 A 407     126.895 121.106  90.157  0.00  0.00    +0.092 C 
ATOM     24  CAY VF1 A 407     127.154 118.814  91.207  0.00  0.00    +0.511 C 
ENDROOT
BRANCH  24  25
ATOM     25  CAV VF1 A 407     127.984 119.117  92.439  0.00  0.00    -0.218 A 
ATOM     26  CAJ VF1 A 407     127.464 118.744  93.663  0.00  0.00    +0.016 A 
ATOM     27  CAH VF1 A 407     128.263 118.731  94.809  0.00  0.00    -0.002 A 
ATOM     28  CAG VF1 A 407     129.576 119.127  94.731  0.00  0.00    +0.017 A 
ATOM     29  CAI VF1 A 407     130.088 119.578  93.520  0.00  0.00    -0.051 A 
ATOM     30  CAK VF1 A 407     129.288 119.588  92.386  0.00  0.00    +0.120 A 
ENDBRANCH  24  25
BRANCH  17  31
ATOM     31  OAT VF1 A 407     126.469 118.619  88.584  0.00  0.00    -0.660 OA
ATOM     32  CAA VF1 A 407     126.141 117.486  87.714  0.00  0.00    +0.411 C 
ENDBRANCH  17  31
TORSDOF 2
ENDMDL
MODEL 6
REMARK VINA RESULT:    -8.739      2.289      7.080
REMARK INTER + INTRA:         -10.180
REMARK INTER:                  -9.368
REMARK INTRA:                  -0.813
REMARK UNBOUND:                -0.419
REMARK  Name = Output/Trash/BU72_ligand_ligand_intermediary.pdb
REMARK  2 active torsions:
REMARK  status: ('A' for Active; 'I' for Inactive)
REMARK    1  A    between atoms: CBE_17  and  OAT_18
REMARK    2  A    between atoms: CAY_26  and  CAV_27
REMARK                            x       y       z     vdW  Elec       q    Type
REMARK                         _______ _______ _______ _____ _____    ______ ____
ROOT
ATOM      1  CAP VF1 A 407     124.328 116.065  91.101  0.00  0.00    -0.017 C 
ATOM      2  CAO VF1 A 407     125.128 115.634  89.890  0.00  0.00    +0.278 C 
ATOM      3  NBB VF1 A 407     124.663 116.339  88.678  0.00  0.00    -0.604 NA
ATOM      4  CAB VF1 A 407     125.371 115.825  87.514  0.00  0.00    +0.239 C 
ATOM      5  CAZ VF1 A 407     124.827 117.799  88.813  0.00  0.00    +0.492 C 
ATOM      6  CAQ VF1 A 407     126.245 118.307  89.087  0.00  0.00    -0.201 C 
ATOM      7  CAW VF1 A 407     126.608 118.419  90.550  0.00  0.00    -0.014 A 
ATOM      8  CAM VF1 A 407     127.883 118.851  90.910  0.00  0.00    +0.124 A 
ATOM      9  CAL VF1 A 407     128.269 118.954  92.245  0.00  0.00    -0.383 A 
ATOM     10  CAU VF1 A 407     127.388 118.568  93.230  0.00  0.00    +0.847 A 
ATOM     11  OAD VF1 A 407     127.646 118.592  94.549  0.00  0.00    -0.392 OA
ATOM     12  CAN VF1 A 407     126.122 118.111  92.879  0.00  0.00    -0.351 A 
ATOM     13  CAX VF1 A 407     125.704 118.068  91.557  0.00  0.00    +0.008 A 
ATOM     14  CBF VF1 A 407     124.271 117.598  91.221  0.00  0.00    +0.095 C 
ATOM     15  CBA VF1 A 407     123.198 118.011  92.247  0.00  0.00    +0.021 C 
ATOM     16  NAS VF1 A 407     122.120 116.982  92.230  0.00  0.00    -0.391 NA
ATOM     17  CBE VF1 A 407     122.360 119.224  91.811  0.00  0.00    +0.789 C 
ATOM     18  CAF VF1 A 407     123.205 120.236  91.092  0.00  0.00    -0.272 C 
ATOM     19  CAE VF1 A 407     123.952 119.774  90.112  0.00  0.00    +0.097 C 
ATOM     20  CBD VF1 A 407     123.856 118.308  89.888  0.00  0.00    -0.321 C 
ATOM     21  CAR VF1 A 407     122.380 118.031  89.620  0.00  0.00    +0.194 C 
ATOM     22  CBC VF1 A 407     121.453 118.529  90.732  0.00  0.00    -0.474 C 
ATOM     23  CAC VF1 A 407     120.337 119.461  90.210  0.00  0.00    +0.092 C 
ATOM     24  CAY VF1 A 407     120.852 117.484  91.710  0.00  0.00    +0.511 C 
ENDROOT
BRANCH  24  25
ATOM     25  CAV VF1 A 407     119.936 116.412  91.155  0.00  0.00    -0.218 A 
ATOM     26  CAJ VF1 A 407     118.576 116.582  91.333  0.00  0.00    +0.016 A 
ATOM     27  CAH VF1 A 407     117.656 115.803  90.628  0.00  0.00    -0.002 A 
ATOM     28  CAG VF1 A 407     118.102 114.828  89.769  0.00  0.00    +0.017 A 
ATOM     29  CAI VF1 A 407     119.467 114.596  89.640  0.00  0.00    -0.051 A 
ATOM     30  CAK VF1 A 407     120.375 115.376  90.344  0.00  0.00    +0.120 A 
ENDBRANCH  24  25
BRANCH  17  31
ATOM     31  OAT VF1 A 407     121.632 119.820  92.863  0.00  0.00    -0.660 OA
ATOM     32  CAA VF1 A 407     122.347 120.118  94.107  0.00  0.00    +0.411 C 
ENDBRANCH  17  31
TORSDOF 2
ENDMDL
MODEL 7
REMARK VINA RESULT:    -8.617      2.650      5.246
REMARK INTER + INTRA:         -10.044
REMARK INTER:                  -9.166
REMARK INTRA:                  -0.878
REMARK UNBOUND:                -0.419
REMARK  Name = Output/Trash/BU72_ligand_ligand_intermediary.pdb
REMARK  2 active torsions:
REMARK  status: ('A' for Active; 'I' for Inactive)
REMARK    1  A    between atoms: CBE_17  and  OAT_18
REMARK    2  A    between atoms: CAY_26  and  CAV_27
REMARK                            x       y       z     vdW  Elec       q    Type
REMARK                         _______ _______ _______ _____ _____    ______ ____
ROOT
ATOM      1  CAP VF1 A 407     124.088 116.871  91.683  0.00  0.00    -0.017 C 
ATOM      2  CAO VF1 A 407     125.274 117.808  91.787  0.00  0.00    +0.278 C 
ATOM      3  NBB VF1 A 407     125.307 118.737  90.639  0.00  0.00    -0.604 NA
ATOM      4  CAB VF1 A 407     126.515 119.548  90.705  0.00  0.00    +0.239 C 
ATOM      5  CAZ VF1 A 407     124.092 119.573  90.591  0.00  0.00    +0.492 C 
ATOM      6  CAQ VF1 A 407     123.801 120.428  91.826  0.00  0.00    -0.201 C 
ATOM      7  CAW VF1 A 407     122.951 119.756  92.879  0.00  0.00    -0.014 A 
ATOM      8  CAM VF1 A 407     122.643 120.439  94.054  0.00  0.00    +0.124 A 
ATOM      9  CAL VF1 A 407     121.877 119.854  95.061  0.00  0.00    -0.383 A 
ATOM     10  CAU VF1 A 407     121.459 118.550  94.914  0.00  0.00    +0.847 A 
ATOM     11  OAD VF1 A 407     120.741 117.863  95.818  0.00  0.00    -0.392 OA
ATOM     12  CAN VF1 A 407     121.783 117.851  93.755  0.00  0.00    -0.351 A 
ATOM     13  CAX VF1 A 407     122.488 118.446  92.718  0.00  0.00    +0.008 A 
ATOM     14  CBF VF1 A 407     122.781 117.643  91.432  0.00  0.00    +0.095 C 
ATOM     15  CBA VF1 A 407     121.664 116.671  91.006  0.00  0.00    +0.021 C 
ATOM     16  NAS VF1 A 407     122.292 115.532  90.280  0.00  0.00    -0.391 NA
ATOM     17  CBE VF1 A 407     120.779 117.206  89.868  0.00  0.00    +0.789 C 
ATOM     18  CAF VF1 A 407     120.538 118.681  90.016  0.00  0.00    -0.272 C 
ATOM     19  CAE VF1 A 407     121.607 119.425  90.203  0.00  0.00    +0.097 C 
ATOM     20  CBD VF1 A 407     122.889 118.678  90.261  0.00  0.00    -0.321 C 
ATOM     21  CAR VF1 A 407     122.982 117.920  88.940  0.00  0.00    +0.194 C 
ATOM     22  CBC VF1 A 407     121.775 117.019  88.666  0.00  0.00    -0.474 C 
ATOM     23  CAC VF1 A 407     121.112 117.301  87.300  0.00  0.00    +0.092 C 
ATOM     24  CAY VF1 A 407     121.942 115.488  88.864  0.00  0.00    +0.511 C 
ENDROOT
BRANCH  24  25
ATOM     25  CAV VF1 A 407     122.942 114.748  87.996  0.00  0.00    -0.218 A 
ATOM     26  CAJ VF1 A 407     124.248 114.689  88.442  0.00  0.00    +0.016 A 
ATOM     27  CAH VF1 A 407     125.165 113.810  87.861  0.00  0.00    -0.002 A 
ATOM     28  CAG VF1 A 407     124.779 113.016  86.808  0.00  0.00    +0.017 A 
ATOM     29  CAI VF1 A 407     123.489 113.124  86.301  0.00  0.00    -0.051 A 
ATOM     30  CAK VF1 A 407     122.584 114.000  86.885  0.00  0.00    +0.120 A 
ENDBRANCH  24  25
BRANCH  17  31
ATOM     31  OAT VF1 A 407     119.566 116.502  89.712  0.00  0.00    -0.660 OA
ATOM     32  CAA VF1 A 407     118.700 116.361  90.886  0.00  0.00    +0.411 C 
ENDBRANCH  17  31
TORSDOF 2
ENDMDL
MODEL 8
REMARK VINA RESULT:    -8.465      2.198      5.919
REMARK INTER + INTRA:          -9.874
REMARK INTER:                  -9.530
REMARK INTRA:                  -0.345
REMARK UNBOUND:                -0.419
REMARK  Name = Output/Trash/BU72_ligand_ligand_intermediary.pdb
REMARK  2 active torsions:
REMARK  status: ('A' for Active; 'I' for Inactive)
REMARK    1  A    between atoms: CBE_17  and  OAT_18
REMARK    2  A    between atoms: CAY_26  and  CAV_27
REMARK                            x       y       z     vdW  Elec       q    Type
REMARK                         _______ _______ _______ _____ _____    ______ ____
ROOT
ATOM      1  CAP VF1 A 407     122.181 118.952  89.808  0.00  0.00    -0.017 C 
ATOM      2  CAO VF1 A 407     123.691 118.863  89.739  0.00  0.00    +0.278 C 
ATOM      3  NBB VF1 A 407     124.189 117.761  90.589  0.00  0.00    -0.604 NA
ATOM      4  CAB VF1 A 407     125.646 117.770  90.592  0.00  0.00    +0.239 C 
ATOM      5  CAZ VF1 A 407     123.654 116.460  90.145  0.00  0.00    +0.492 C 
ATOM      6  CAQ VF1 A 407     123.950 116.054  88.699  0.00  0.00    -0.201 C 
ATOM      7  CAW VF1 A 407     122.918 116.500  87.690  0.00  0.00    -0.014 A 
ATOM      8  CAM VF1 A 407     123.101 116.201  86.341  0.00  0.00    +0.124 A 
ATOM      9  CAL VF1 A 407     122.185 116.605  85.372  0.00  0.00    -0.383 A 
ATOM     10  CAU VF1 A 407     121.101 117.365  85.749  0.00  0.00    +0.847 A 
ATOM     11  OAD VF1 A 407     120.163 117.840  84.912  0.00  0.00    -0.392 OA
ATOM     12  CAN VF1 A 407     120.922 117.690  87.090  0.00  0.00    -0.351 A 
ATOM     13  CAX VF1 A 407     121.792 117.236  88.071  0.00  0.00    +0.008 A 
ATOM     14  CBF VF1 A 407     121.525 117.584  89.552  0.00  0.00    +0.095 C 
ATOM     15  CBA VF1 A 407     120.036 117.627  89.949  0.00  0.00    +0.021 C 
ATOM     16  NAS VF1 A 407     119.881 118.602  91.064  0.00  0.00    -0.391 NA
ATOM     17  CBE VF1 A 407     119.554 116.365  90.682  0.00  0.00    +0.789 C 
ATOM     18  CAF VF1 A 407     120.191 115.130  90.112  0.00  0.00    -0.272 C 
ATOM     19  CAE VF1 A 407     121.501 115.160  89.987  0.00  0.00    +0.097 C 
ATOM     20  CBD VF1 A 407     122.142 116.430  90.413  0.00  0.00    -0.321 C 
ATOM     21  CAR VF1 A 407     121.732 116.628  91.869  0.00  0.00    +0.194 C 
ATOM     22  CBC VF1 A 407     120.217 116.621  92.084  0.00  0.00    -0.474 C 
ATOM     23  CAC VF1 A 407     119.766 115.594  93.147  0.00  0.00    +0.092 C 
ATOM     24  CAY VF1 A 407     119.503 117.978  92.328  0.00  0.00    +0.511 C 
ENDROOT
BRANCH  24  25
ATOM     25  CAV VF1 A 407     119.873 118.783  93.558  0.00  0.00    -0.218 A 
ATOM     26  CAJ VF1 A 407     119.252 120.004  93.729  0.00  0.00    +0.016 A 
ATOM     27  CAH VF1 A 407     119.319 120.680  94.950  0.00  0.00    -0.002 A 
ATOM     28  CAG VF1 A 407     120.041 120.145  95.989  0.00  0.00    +0.017 A 
ATOM     29  CAI VF1 A 407     120.734 118.954  95.803  0.00  0.00    -0.051 A 
ATOM     30  CAK VF1 A 407     120.661 118.288  94.587  0.00  0.00    +0.120 A 
ENDBRANCH  24  25
BRANCH  17  31
ATOM     31  OAT VF1 A 407     118.150 116.239  90.735  0.00  0.00    -0.660 OA
ATOM     32  CAA VF1 A 407     117.548 115.033  90.159  0.00  0.00    +0.411 C 
ENDBRANCH  17  31
TORSDOF 2
ENDMDL
MODEL 9
REMARK VINA RESULT:    -8.439      4.202      8.032
REMARK INTER + INTRA:          -9.845
REMARK INTER:                  -9.388
REMARK INTRA:                  -0.458
REMARK UNBOUND:                -0.419
REMARK  Name = Output/Trash/BU72_ligand_ligand_intermediary.pdb
REMARK  2 active torsions:
REMARK  status: ('A' for Active; 'I' for Inactive)
REMARK    1  A    between atoms: CBE_17  and  OAT_18
REMARK    2  A    between atoms: CAY_26  and  CAV_27
REMARK                            x       y       z     vdW  Elec       q    Type
REMARK                         _______ _______ _______ _____ _____    ______ ____
ROOT
ATOM      1  CAP VF1 A 407     124.084 117.181  89.451  0.00  0.00    -0.017 C 
ATOM      2  CAO VF1 A 407     124.843 117.287  90.758  0.00  0.00    +0.278 C 
ATOM      3  NBB VF1 A 407     125.322 115.959  91.194  0.00  0.00    -0.604 NA
ATOM      4  CAB VF1 A 407     125.948 116.074  92.504  0.00  0.00    +0.239 C 
ATOM      5  CAZ VF1 A 407     126.241 115.370  90.201  0.00  0.00    +0.492 C 
ATOM      6  CAQ VF1 A 407     127.490 116.185  89.856  0.00  0.00    -0.201 C 
ATOM      7  CAW VF1 A 407     127.322 117.149  88.705  0.00  0.00    -0.014 A 
ATOM      8  CAM VF1 A 407     128.392 117.954  88.321  0.00  0.00    +0.124 A 
ATOM      9  CAL VF1 A 407     128.280 118.870  87.277  0.00  0.00    -0.383 A 
ATOM     10  CAU VF1 A 407     127.067 119.020  86.643  0.00  0.00    +0.847 A 
ATOM     11  OAD VF1 A 407     126.820 119.884  85.644  0.00  0.00    -0.392 OA
ATOM     12  CAN VF1 A 407     125.986 118.237  87.036  0.00  0.00    -0.351 A 
ATOM     13  CAX VF1 A 407     126.105 117.276  88.030  0.00  0.00    +0.008 A 
ATOM     14  CBF VF1 A 407     124.888 116.399  88.397  0.00  0.00    +0.095 C 
ATOM     15  CBA VF1 A 407     123.980 116.022  87.210  0.00  0.00    +0.021 C 
ATOM     16  NAS VF1 A 407     122.593 115.844  87.725  0.00  0.00    -0.391 NA
ATOM     17  CBE VF1 A 407     124.211 114.596  86.682  0.00  0.00    +0.789 C 
ATOM     18  CAF VF1 A 407     125.668 114.235  86.716  0.00  0.00    -0.272 C 
ATOM     19  CAE VF1 A 407     126.290 114.448  87.857  0.00  0.00    +0.097 C 
ATOM     20  CBD VF1 A 407     125.448 115.037  88.929  0.00  0.00    -0.321 C 
ATOM     21  CAR VF1 A 407     124.287 114.066  89.119  0.00  0.00    +0.194 C 
ATOM     22  CBC VF1 A 407     123.507 113.787  87.831  0.00  0.00    -0.474 C 
ATOM     23  CAC VF1 A 407     123.398 112.280  87.510  0.00  0.00    +0.092 C 
ATOM     24  CAY VF1 A 407     122.122 114.465  87.649  0.00  0.00    +0.511 C 
ENDROOT
BRANCH  24  25
ATOM     25  CAV VF1 A 407     121.015 114.128  88.628  0.00  0.00    -0.218 A 
ATOM     26  CAJ VF1 A 407     120.094 115.119  88.911  0.00  0.00    +0.016 A 
ATOM     27  CAH VF1 A 407     118.901 114.822  89.574  0.00  0.00    -0.002 A 
ATOM     28  CAG VF1 A 407     118.648 113.536  89.985  0.00  0.00    +0.017 A 
ATOM     29  CAI VF1 A 407     119.602 112.546  89.774  0.00  0.00    -0.051 A 
ATOM     30  CAK VF1 A 407     120.785 112.850  89.113  0.00  0.00    +0.120 A 
ENDBRANCH  24  25
BRANCH  17  31
ATOM     31  OAT VF1 A 407     123.655 114.365  85.406  0.00  0.00    -0.660 OA
ATOM     32  CAA VF1 A 407     123.838 115.398  84.383  0.00  0.00    +0.411 C 
ENDBRANCH  17  31
TORSDOF 2
ENDMDL
