MODEL 1
REMARK VINA RESULT:    -8.882      0.000      0.000
REMARK INTER + INTRA:         -10.768
REMARK INTER:                  -9.920
REMARK INTRA:                  -0.848
REMARK UNBOUND:                -0.848
REMARK  Name = Output/Trash/BU72_ligand_ligand_intermediary.pdb
REMARK  2 active torsions:
REMARK  status: ('A' for Active; 'I' for Inactive)
REMARK    1  A    between atoms: CBE_17  and  OAT_18
REMARK    2  A    between atoms: CAY_26  and  CAV_27
REMARK                            x       y       z     vdW  Elec       q    Type
REMARK                         _______ _______ _______ _____ _____    ______ ____
ROOT
ATOM      1  CAP VF1 A 407     121.413 151.529 141.412  0.00  0.00    -0.017 C 
ATOM      2  CAO VF1 A 407     120.958 150.585 140.318  0.00  0.00    +0.278 C 
ATOM      3  NBB VF1 A 407     119.486 150.594 140.199  0.00  0.00    -0.604 NA
ATOM      4  CAB VF1 A 407     119.071 149.597 139.222  0.00  0.00    +0.239 C 
ATOM      5  CAZ VF1 A 407     118.986 151.938 139.852  0.00  0.00    +0.492 C 
ATOM      6  CAQ VF1 A 407     119.524 152.556 138.559  0.00  0.00    -0.201 C 
ATOM      7  CAW VF1 A 407     120.781 153.379 138.724  0.00  0.00    -0.014 A 
ATOM      8  CAM VF1 A 407     121.367 153.970 137.607  0.00  0.00    +0.124 A 
ATOM      9  CAL VF1 A 407     122.535 154.724 137.706  0.00  0.00    -0.383 A 
ATOM     10  CAU VF1 A 407     123.154 154.843 138.930  0.00  0.00    +0.847 A 
ATOM     11  OAD VF1 A 407     124.295 155.516 139.156  0.00  0.00    -0.392 OA
ATOM     12  CAN VF1 A 407     122.589 154.236 140.048  0.00  0.00    -0.351 A 
ATOM     13  CAX VF1 A 407     121.392 153.539 139.971  0.00  0.00    +0.008 A 
ATOM     14  CBF VF1 A 407     120.781 152.923 141.249  0.00  0.00    +0.095 C 
ATOM     15  CBA VF1 A 407     120.990 153.753 142.531  0.00  0.00    +0.021 C 
ATOM     16  NAS VF1 A 407     121.028 152.816 143.689  0.00  0.00    -0.391 NA
ATOM     17  CBE VF1 A 407     119.756 154.573 142.944  0.00  0.00    +0.789 C 
ATOM     18  CAF VF1 A 407     119.047 155.129 141.743  0.00  0.00    -0.272 C 
ATOM     19  CAE VF1 A 407     118.771 154.268 140.786  0.00  0.00    +0.097 C 
ATOM     20  CBD VF1 A 407     119.229 152.879 141.040  0.00  0.00    -0.321 C 
ATOM     21  CAR VF1 A 407     118.567 152.462 142.350  0.00  0.00    +0.194 C 
ATOM     22  CBC VF1 A 407     118.861 153.413 143.513  0.00  0.00    -0.474 C 
ATOM     23  CAC VF1 A 407     117.581 153.937 144.200  0.00  0.00    +0.092 C 
ATOM     24  CAY VF1 A 407     119.888 152.962 144.588  0.00  0.00    +0.511 C 
ENDROOT
BRANCH  24  25
ATOM     25  CAV VF1 A 407     119.580 151.729 145.414  0.00  0.00    -0.218 A 
ATOM     26  CAJ VF1 A 407     120.184 150.545 145.036  0.00  0.00    +0.016 A 
ATOM     27  CAH VF1 A 407     120.181 149.435 145.884  0.00  0.00    -0.002 A 
ATOM     28  CAG VF1 A 407     119.541 149.503 147.097  0.00  0.00    +0.017 A 
ATOM     29  CAI VF1 A 407     118.864 150.664 147.454  0.00  0.00    -0.051 A 
ATOM     30  CAK VF1 A 407     118.873 151.763 146.606  0.00  0.00    +0.120 A 
ENDBRANCH  24  25
BRANCH  17  31
ATOM     31  OAT VF1 A 407     120.036 155.585 143.887  0.00  0.00    -0.660 OA
ATOM     32  CAA VF1 A 407     120.319 156.932 143.382  0.00  0.00    +0.411 C 
ENDBRANCH  17  31
TORSDOF 2
ENDMDL
MODEL 2
REMARK VINA RESULT:    -8.348      1.924      5.890
REMARK INTER + INTRA:         -10.172
REMARK INTER:                  -9.406
REMARK INTRA:                  -0.766
REMARK UNBOUND:                -0.848
REMARK  Name = Output/Trash/BU72_ligand_ligand_intermediary.pdb
REMARK  2 active torsions:
REMARK  status: ('A' for Active; 'I' for Inactive)
REMARK    1  A    between atoms: CBE_17  and  OAT_18
REMARK    2  A    between atoms: CAY_26  and  CAV_27
REMARK                            x       y       z     vdW  Elec       q    Type
REMARK                         _______ _______ _______ _____ _____    ______ ____
ROOT
ATOM      1  CAP VF1 A 407     118.198 154.383 142.250  0.00  0.00    -0.017 C 
ATOM      2  CAO VF1 A 407     117.888 153.903 143.652  0.00  0.00    +0.278 C 
ATOM      3  NBB VF1 A 407     118.846 152.860 144.072  0.00  0.00    -0.604 NA
ATOM      4  CAB VF1 A 407     118.457 152.339 145.375  0.00  0.00    +0.239 C 
ATOM      5  CAZ VF1 A 407     120.228 153.376 144.083  0.00  0.00    +0.492 C 
ATOM      6  CAQ VF1 A 407     120.499 154.591 144.974  0.00  0.00    -0.201 C 
ATOM      7  CAW VF1 A 407     120.308 155.929 144.300  0.00  0.00    -0.014 A 
ATOM      8  CAM VF1 A 407     120.509 157.101 145.027  0.00  0.00    +0.124 A 
ATOM      9  CAL VF1 A 407     120.329 158.358 144.454  0.00  0.00    -0.383 A 
ATOM     10  CAU VF1 A 407     119.890 158.444 143.151  0.00  0.00    +0.847 A 
ATOM     11  OAD VF1 A 407     119.652 159.590 142.491  0.00  0.00    -0.392 OA
ATOM     12  CAN VF1 A 407     119.664 157.279 142.424  0.00  0.00    -0.351 A 
ATOM     13  CAX VF1 A 407     119.903 156.025 142.965  0.00  0.00    +0.008 A 
ATOM     14  CBF VF1 A 407     119.682 154.763 142.101  0.00  0.00    +0.095 C 
ATOM     15  CBA VF1 A 407     120.041 154.927 140.611  0.00  0.00    +0.021 C 
ATOM     16  NAS VF1 A 407     119.175 154.009 139.822  0.00  0.00    -0.391 NA
ATOM     17  CBE VF1 A 407     121.408 154.330 140.235  0.00  0.00    +0.789 C 
ATOM     18  CAF VF1 A 407     122.415 154.551 141.326  0.00  0.00    -0.272 C 
ATOM     19  CAE VF1 A 407     122.040 154.203 142.539  0.00  0.00    +0.097 C 
ATOM     20  CBD VF1 A 407     120.660 153.663 142.637  0.00  0.00    -0.321 C 
ATOM     21  CAR VF1 A 407     120.620 152.465 141.693  0.00  0.00    +0.194 C 
ATOM     22  CBC VF1 A 407     121.030 152.804 140.258  0.00  0.00    -0.474 C 
ATOM     23  CAC VF1 A 407     122.170 151.906 139.730  0.00  0.00    +0.092 C 
ATOM     24  CAY VF1 A 407     119.914 152.923 139.184  0.00  0.00    +0.511 C 
ENDROOT
BRANCH  24  25
ATOM     25  CAV VF1 A 407     119.078 151.699 138.867  0.00  0.00    -0.218 A 
ATOM     26  CAJ VF1 A 407     118.024 151.413 139.714  0.00  0.00    +0.016 A 
ATOM     27  CAH VF1 A 407     117.046 150.483 139.354  0.00  0.00    -0.002 A 
ATOM     28  CAG VF1 A 407     117.146 149.814 138.158  0.00  0.00    +0.017 A 
ATOM     29  CAI VF1 A 407     118.243 150.037 137.334  0.00  0.00    -0.051 A 
ATOM     30  CAK VF1 A 407     119.210 150.964 137.699  0.00  0.00    +0.120 A 
ENDBRANCH  24  25
BRANCH  17  31
ATOM     31  OAT VF1 A 407     121.897 154.772 138.988  0.00  0.00    -0.660 OA
ATOM     32  CAA VF1 A 407     123.322 155.101 138.890  0.00  0.00    +0.411 C 
ENDBRANCH  17  31
TORSDOF 2
ENDMDL
MODEL 3
REMARK VINA RESULT:    -8.336      2.154      5.089
REMARK INTER + INTRA:         -10.159
REMARK INTER:                  -9.993
REMARK INTRA:                  -0.165
REMARK UNBOUND:                -0.848
REMARK  Name = Output/Trash/BU72_ligand_ligand_intermediary.pdb
REMARK  2 active torsions:
REMARK  status: ('A' for Active; 'I' for Inactive)
REMARK    1  A    between atoms: CBE_17  and  OAT_18
REMARK    2  A    between atoms: CAY_26  and  CAV_27
REMARK                            x       y       z     vdW  Elec       q    Type
REMARK                         _______ _______ _______ _____ _____    ______ ____
ROOT
ATOM      1  CAP VF1 A 407     120.589 154.262 140.150  0.00  0.00    -0.017 C 
ATOM      2  CAO VF1 A 407     119.888 155.550 139.772  0.00  0.00    +0.278 C 
ATOM      3  NBB VF1 A 407     118.567 155.638 140.429  0.00  0.00    -0.604 NA
ATOM      4  CAB VF1 A 407     117.870 156.828 139.962  0.00  0.00    +0.239 C 
ATOM      5  CAZ VF1 A 407     118.700 155.627 141.899  0.00  0.00    +0.492 C 
ATOM      6  CAQ VF1 A 407     119.561 156.730 142.517  0.00  0.00    -0.201 C 
ATOM      7  CAW VF1 A 407     121.024 156.385 142.669  0.00  0.00    -0.014 A 
ATOM      8  CAM VF1 A 407     121.902 157.326 143.203  0.00  0.00    +0.124 A 
ATOM      9  CAL VF1 A 407     123.262 157.059 143.347  0.00  0.00    -0.383 A 
ATOM     10  CAU VF1 A 407     123.760 155.856 142.902  0.00  0.00    +0.847 A 
ATOM     11  OAD VF1 A 407     125.051 155.487 142.956  0.00  0.00    -0.392 OA
ATOM     12  CAN VF1 A 407     122.895 154.918 142.344  0.00  0.00    -0.351 A 
ATOM     13  CAX VF1 A 407     121.530 155.148 142.257  0.00  0.00    +0.008 A 
ATOM     14  CBF VF1 A 407     120.605 154.056 141.675  0.00  0.00    +0.095 C 
ATOM     15  CBA VF1 A 407     121.018 152.610 142.011  0.00  0.00    +0.021 C 
ATOM     16  NAS VF1 A 407     120.561 151.727 140.902  0.00  0.00    -0.391 NA
ATOM     17  CBE VF1 A 407     120.201 151.983 143.152  0.00  0.00    +0.789 C 
ATOM     18  CAF VF1 A 407     119.897 152.993 144.221  0.00  0.00    -0.272 C 
ATOM     19  CAE VF1 A 407     119.380 154.131 143.810  0.00  0.00    +0.097 C 
ATOM     20  CBD VF1 A 407     119.199 154.244 142.340  0.00  0.00    -0.321 C 
ATOM     21  CAR VF1 A 407     118.307 153.070 141.946  0.00  0.00    +0.194 C 
ATOM     22  CBC VF1 A 407     118.859 151.710 142.380  0.00  0.00    -0.474 C 
ATOM     23  CAC VF1 A 407     117.851 150.892 143.217  0.00  0.00    +0.092 C 
ATOM     24  CAY VF1 A 407     119.506 150.801 141.299  0.00  0.00    +0.511 C 
ENDROOT
BRANCH  24  25
ATOM     25  CAV VF1 A 407     118.643 150.308 140.154  0.00  0.00    -0.218 A 
ATOM     26  CAJ VF1 A 407     117.371 150.837 140.043  0.00  0.00    +0.016 A 
ATOM     27  CAH VF1 A 407     116.617 150.655 138.882  0.00  0.00    -0.002 A 
ATOM     28  CAG VF1 A 407     117.126 149.911 137.845  0.00  0.00    +0.017 A 
ATOM     29  CAI VF1 A 407     118.372 149.310 137.977  0.00  0.00    -0.051 A 
ATOM     30  CAK VF1 A 407     119.116 149.497 139.134  0.00  0.00    +0.120 A 
ENDBRANCH  24  25
BRANCH  17  31
ATOM     31  OAT VF1 A 407     120.785 150.820 143.698  0.00  0.00    -0.660 OA
ATOM     32  CAA VF1 A 407     121.065 150.805 145.136  0.00  0.00    +0.411 C 
ENDBRANCH  17  31
TORSDOF 2
ENDMDL
MODEL 4
REMARK VINA RESULT:    -8.070      2.155      7.005
REMARK INTER + INTRA:          -9.862
REMARK INTER:                  -8.994
REMARK INTRA:                  -0.868
REMARK UNBOUND:                -0.848
REMARK  Name = Output/Trash/BU72_ligand_ligand_intermediary.pdb
REMARK  2 active torsions:
REMARK  status: ('A' for Active; 'I' for Inactive)
REMARK    1  A    between atoms: CBE_17  and  OAT_18
REMARK    2  A    between atoms: CAY_26  and  CAV_27
REMARK                            x       y       z     vdW  Elec       q    Type
REMARK                         _______ _______ _______ _____ _____    ______ ____
ROOT
ATOM      1  CAP VF1 A 407     121.861 153.826 144.153  0.00  0.00    -0.017 C 
ATOM      2  CAO VF1 A 407     122.120 154.896 145.193  0.00  0.00    +0.278 C 
ATOM      3  NBB VF1 A 407     121.399 156.140 144.855  0.00  0.00    -0.604 NA
ATOM      4  CAB VF1 A 407     121.755 157.182 145.807  0.00  0.00    +0.239 C 
ATOM      5  CAZ VF1 A 407     119.941 155.918 144.810  0.00  0.00    +0.492 C 
ATOM      6  CAQ VF1 A 407     119.291 155.379 146.087  0.00  0.00    -0.201 C 
ATOM      7  CAW VF1 A 407     119.229 153.872 146.182  0.00  0.00    -0.014 A 
ATOM      8  CAM VF1 A 407     118.676 153.277 147.314  0.00  0.00    +0.124 A 
ATOM      9  CAL VF1 A 407     118.612 151.892 147.454  0.00  0.00    -0.383 A 
ATOM     10  CAU VF1 A 407     119.158 151.093 146.474  0.00  0.00    +0.847 A 
ATOM     11  OAD VF1 A 407     119.187 149.750 146.501  0.00  0.00    -0.392 OA
ATOM     12  CAN VF1 A 407     119.735 151.679 145.352  0.00  0.00    -0.351 A 
ATOM     13  CAX VF1 A 407     119.745 153.054 145.172  0.00  0.00    +0.008 A 
ATOM     14  CBF VF1 A 407     120.355 153.654 143.886  0.00  0.00    +0.095 C 
ATOM     15  CBA VF1 A 407     120.134 152.816 142.612  0.00  0.00    +0.021 C 
ATOM     16  NAS VF1 A 407     121.277 153.064 141.689  0.00  0.00    -0.391 NA
ATOM     17  CBE VF1 A 407     119.000 153.341 141.715  0.00  0.00    +0.789 C 
ATOM     18  CAF VF1 A 407     117.854 153.859 142.537  0.00  0.00    -0.272 C 
ATOM     19  CAE VF1 A 407     118.166 154.711 143.490  0.00  0.00    +0.097 C 
ATOM     20  CBD VF1 A 407     119.616 155.009 143.616  0.00  0.00    -0.321 C 
ATOM     21  CAR VF1 A 407     120.045 155.542 142.253  0.00  0.00    +0.194 C 
ATOM     22  CBC VF1 A 407     119.727 154.590 141.097  0.00  0.00    -0.474 C 
ATOM     23  CAC VF1 A 407     118.900 155.260 139.977  0.00  0.00    +0.092 C 
ATOM     24  CAY VF1 A 407     120.893 153.776 140.474  0.00  0.00    +0.511 C 
ENDROOT
BRANCH  24  25
ATOM     25  CAV VF1 A 407     122.028 154.527 139.805  0.00  0.00    -0.218 A 
ATOM     26  CAJ VF1 A 407     123.057 154.972 140.612  0.00  0.00    +0.016 A 
ATOM     27  CAH VF1 A 407     124.258 155.423 140.060  0.00  0.00    -0.002 A 
ATOM     28  CAG VF1 A 407     124.413 155.459 138.695  0.00  0.00    +0.017 A 
ATOM     29  CAI VF1 A 407     123.355 155.087 137.873  0.00  0.00    -0.051 A 
ATOM     30  CAK VF1 A 407     122.165 154.639 138.430  0.00  0.00    +0.120 A 
ENDBRANCH  24  25
BRANCH  17  31
ATOM     31  OAT VF1 A 407     118.559 152.409 140.752  0.00  0.00    -0.660 OA
ATOM     32  CAA VF1 A 407     118.062 151.116 141.228  0.00  0.00    +0.411 C 
ENDBRANCH  17  31
TORSDOF 2
ENDMDL
MODEL 5
REMARK VINA RESULT:    -7.980      2.099      6.842
REMARK INTER + INTRA:          -9.761
REMARK INTER:                  -9.462
REMARK INTRA:                  -0.299
REMARK UNBOUND:                -0.848
REMARK  Name = Output/Trash/BU72_ligand_ligand_intermediary.pdb
REMARK  2 active torsions:
REMARK  status: ('A' for Active; 'I' for Inactive)
REMARK    1  A    between atoms: CBE_17  and  OAT_18
REMARK    2  A    between atoms: CAY_26  and  CAV_27
REMARK                            x       y       z     vdW  Elec       q    Type
REMARK                         _______ _______ _______ _____ _____    ______ ____
ROOT
ATOM      1  CAP VF1 A 407     121.291 153.945 142.975  0.00  0.00    -0.017 C 
ATOM      2  CAO VF1 A 407     120.780 155.247 143.557  0.00  0.00    +0.278 C 
ATOM      3  NBB VF1 A 407     119.889 155.933 142.599  0.00  0.00    -0.604 NA
ATOM      4  CAB VF1 A 407     119.503 157.230 143.138  0.00  0.00    +0.239 C 
ATOM      5  CAZ VF1 A 407     118.710 155.105 142.278  0.00  0.00    +0.492 C 
ATOM      6  CAQ VF1 A 407     117.829 154.681 143.455  0.00  0.00    -0.201 C 
ATOM      7  CAW VF1 A 407     118.217 153.371 144.100  0.00  0.00    -0.014 A 
ATOM      8  CAM VF1 A 407     117.493 152.902 145.194  0.00  0.00    +0.124 A 
ATOM      9  CAL VF1 A 407     117.823 151.708 145.832  0.00  0.00    -0.383 A 
ATOM     10  CAU VF1 A 407     118.924 151.001 145.404  0.00  0.00    +0.847 A 
ATOM     11  OAD VF1 A 407     119.365 149.854 145.948  0.00  0.00    -0.392 OA
ATOM     12  CAN VF1 A 407     119.669 151.474 144.327  0.00  0.00    -0.351 A 
ATOM     13  CAX VF1 A 407     119.309 152.627 143.644  0.00  0.00    +0.008 A 
ATOM     14  CBF VF1 A 407     120.140 153.085 142.425  0.00  0.00    +0.095 C 
ATOM     15  CBA VF1 A 407     120.700 151.941 141.557  0.00  0.00    +0.021 C 
ATOM     16  NAS VF1 A 407     121.966 152.413 140.929  0.00  0.00    -0.391 NA
ATOM     17  CBE VF1 A 407     119.892 151.686 140.273  0.00  0.00    +0.789 C 
ATOM     18  CAF VF1 A 407     118.420 151.853 140.517  0.00  0.00    -0.272 C 
ATOM     19  CAE VF1 A 407     118.056 152.966 141.118  0.00  0.00    +0.097 C 
ATOM     20  CBD VF1 A 407     119.172 153.876 141.482  0.00  0.00    -0.321 C 
ATOM     21  CAR VF1 A 407     119.896 154.179 140.173  0.00  0.00    +0.194 C 
ATOM     22  CBC VF1 A 407     120.364 152.926 139.429  0.00  0.00    -0.474 C 
ATOM     23  CAC VF1 A 407     119.861 152.871 137.969  0.00  0.00    +0.092 C 
ATOM     24  CAY VF1 A 407     121.872 152.561 139.480  0.00  0.00    +0.511 C 
ENDROOT
BRANCH  24  25
ATOM     25  CAV VF1 A 407     122.874 153.530 138.884  0.00  0.00    -0.218 A 
ATOM     26  CAJ VF1 A 407     122.552 154.113 137.674  0.00  0.00    +0.016 A 
ATOM     27  CAH VF1 A 407     123.271 155.209 137.190  0.00  0.00    -0.002 A 
ATOM     28  CAG VF1 A 407     124.337 155.696 137.906  0.00  0.00    +0.017 A 
ATOM     29  CAI VF1 A 407     124.718 155.069 139.087  0.00  0.00    -0.051 A 
ATOM     30  CAK VF1 A 407     123.998 153.981 139.561  0.00  0.00    +0.120 A 
ENDBRANCH  24  25
BRANCH  17  31
ATOM     31  OAT VF1 A 407     120.173 150.446 139.662  0.00  0.00    -0.660 OA
ATOM     32  CAA VF1 A 407     119.043 149.656 139.166  0.00  0.00    +0.411 C 
ENDBRANCH  17  31
TORSDOF 2
ENDMDL
MODEL 6
REMARK VINA RESULT:    -7.906      2.506      5.068
REMARK INTER + INTRA:          -9.679
REMARK INTER:                  -8.798
REMARK INTRA:                  -0.880
REMARK UNBOUND:                -0.848
REMARK  Name = Output/Trash/BU72_ligand_ligand_intermediary.pdb
REMARK  2 active torsions:
REMARK  status: ('A' for Active; 'I' for Inactive)
REMARK    1  A    between atoms: CBE_17  and  OAT_18
REMARK    2  A    between atoms: CAY_26  and  CAV_27
REMARK                            x       y       z     vdW  Elec       q    Type
REMARK                         _______ _______ _______ _____ _____    ______ ____
ROOT
ATOM      1  CAP VF1 A 407     119.387 154.585 140.412  0.00  0.00    -0.017 C 
ATOM      2  CAO VF1 A 407     120.406 154.723 139.300  0.00  0.00    +0.278 C 
ATOM      3  NBB VF1 A 407     121.763 154.408 139.793  0.00  0.00    -0.604 NA
ATOM      4  CAB VF1 A 407     122.734 154.657 138.737  0.00  0.00    +0.239 C 
ATOM      5  CAZ VF1 A 407     121.843 153.022 140.290  0.00  0.00    +0.492 C 
ATOM      6  CAQ VF1 A 407     121.481 151.916 139.296  0.00  0.00    -0.201 C 
ATOM      7  CAW VF1 A 407     120.021 151.524 139.285  0.00  0.00    -0.014 A 
ATOM      8  CAM VF1 A 407     119.580 150.541 138.402  0.00  0.00    +0.124 A 
ATOM      9  CAL VF1 A 407     118.241 150.158 138.344  0.00  0.00    -0.383 A 
ATOM     10  CAU VF1 A 407     117.323 150.805 139.140  0.00  0.00    +0.847 A 
ATOM     11  OAD VF1 A 407     116.004 150.552 139.160  0.00  0.00    -0.392 OA
ATOM     12  CAN VF1 A 407     117.751 151.806 140.008  0.00  0.00    -0.351 A 
ATOM     13  CAX VF1 A 407     119.090 152.148 140.121  0.00  0.00    +0.008 A 
ATOM     14  CBF VF1 A 407     119.521 153.232 141.134  0.00  0.00    +0.095 C 
ATOM     15  CBA VF1 A 407     118.714 153.249 142.447  0.00  0.00    +0.021 C 
ATOM     16  NAS VF1 A 407     118.700 154.645 142.965  0.00  0.00    -0.391 NA
ATOM     17  CBE VF1 A 407     119.438 152.577 143.626  0.00  0.00    +0.789 C 
ATOM     18  CAF VF1 A 407     120.200 151.364 143.174  0.00  0.00    -0.272 C 
ATOM     19  CAE VF1 A 407     120.993 151.533 142.137  0.00  0.00    +0.097 C 
ATOM     20  CBD VF1 A 407     120.991 152.902 141.562  0.00  0.00    -0.321 C 
ATOM     21  CAR VF1 A 407     121.391 153.828 142.706  0.00  0.00    +0.194 C 
ATOM     22  CBC VF1 A 407     120.496 153.696 143.941  0.00  0.00    -0.474 C 
ATOM     23  CAC VF1 A 407     121.293 153.407 145.233  0.00  0.00    +0.092 C 
ATOM     24  CAY VF1 A 407     119.445 154.807 144.210  0.00  0.00    +0.511 C 
ENDROOT
BRANCH  24  25
ATOM     25  CAV VF1 A 407     119.931 156.219 144.468  0.00  0.00    -0.218 A 
ATOM     26  CAJ VF1 A 407     120.143 157.029 143.370  0.00  0.00    +0.016 A 
ATOM     27  CAH VF1 A 407     120.321 158.407 143.517  0.00  0.00    -0.002 A 
ATOM     28  CAG VF1 A 407     120.322 158.966 144.772  0.00  0.00    +0.017 A 
ATOM     29  CAI VF1 A 407     120.188 158.149 145.889  0.00  0.00    -0.051 A 
ATOM     30  CAK VF1 A 407     120.011 156.781 145.734  0.00  0.00    +0.120 A 
ENDBRANCH  24  25
BRANCH  17  31
ATOM     31  OAT VF1 A 407     118.593 152.275 144.714  0.00  0.00    -0.660 OA
ATOM     32  CAA VF1 A 407     117.339 151.569 144.432  0.00  0.00    +0.411 C 
ENDBRANCH  17  31
TORSDOF 2
ENDMDL
MODEL 7
REMARK VINA RESULT:    -6.843      3.172      6.284
REMARK INTER + INTRA:          -8.491
REMARK INTER:                  -7.671
REMARK INTRA:                  -0.820
REMARK UNBOUND:                -0.848
REMARK  Name = Output/Trash/BU72_ligand_ligand_intermediary.pdb
REMARK  2 active torsions:
REMARK  status: ('A' for Active; 'I' for Inactive)
REMARK    1  A    between atoms: CBE_17  and  OAT_18
REMARK    2  A    between atoms: CAY_26  and  CAV_27
REMARK                            x       y       z     vdW  Elec       q    Type
REMARK                         _______ _______ _______ _____ _____    ______ ____
ROOT
ATOM      1  CAP VF1 A 407     121.799 155.546 143.509  0.00  0.00    -0.017 C 
ATOM      2  CAO VF1 A 407     121.478 156.983 143.154  0.00  0.00    +0.278 C 
ATOM      3  NBB VF1 A 407     120.176 157.384 143.725  0.00  0.00    -0.604 NA
ATOM      4  CAB VF1 A 407     119.841 158.728 143.275  0.00  0.00    +0.239 C 
ATOM      5  CAZ VF1 A 407     120.186 157.290 145.197  0.00  0.00    +0.492 C 
ATOM      6  CAQ VF1 A 407     121.248 158.114 145.929  0.00  0.00    -0.201 C 
ATOM      7  CAW VF1 A 407     122.560 157.400 146.160  0.00  0.00    -0.014 A 
ATOM      8  CAM VF1 A 407     123.602 158.067 146.799  0.00  0.00    +0.124 A 
ATOM      9  CAL VF1 A 407     124.835 157.456 147.019  0.00  0.00    -0.383 A 
ATOM     10  CAU VF1 A 407     125.045 156.180 146.546  0.00  0.00    +0.847 A 
ATOM     11  OAD VF1 A 407     126.193 155.491 146.667  0.00  0.00    -0.392 OA
ATOM     12  CAN VF1 A 407     124.018 155.515 145.884  0.00  0.00    -0.351 A 
ATOM     13  CAX VF1 A 407     122.766 156.090 145.718  0.00  0.00    +0.008 A 
ATOM     14  CBF VF1 A 407     121.643 155.292 145.019  0.00  0.00    +0.095 C 
ATOM     15  CBA VF1 A 407     121.650 153.778 145.306  0.00  0.00    +0.021 C 
ATOM     16  NAS VF1 A 407     121.072 153.079 144.124  0.00  0.00    -0.391 NA
ATOM     17  CBE VF1 A 407     120.613 153.343 146.356  0.00  0.00    +0.789 C 
ATOM     18  CAF VF1 A 407     120.493 154.361 147.453  0.00  0.00    -0.272 C 
ATOM     19  CAE VF1 A 407     120.314 155.607 147.068  0.00  0.00    +0.097 C 
ATOM     20  CBD VF1 A 407     120.283 155.811 145.598  0.00  0.00    -0.321 C 
ATOM     21  CAR VF1 A 407     119.157 154.919 145.084  0.00  0.00    +0.194 C 
ATOM     22  CBC VF1 A 407     119.311 153.449 145.482  0.00  0.00    -0.474 C 
ATOM     23  CAC VF1 A 407     118.067 152.889 146.206  0.00  0.00    +0.092 C 
ATOM     24  CAY VF1 A 407     119.788 152.442 144.401  0.00  0.00    +0.511 C 
ENDROOT
BRANCH  24  25
ATOM     25  CAV VF1 A 407     118.921 152.225 143.177  0.00  0.00    -0.218 A 
ATOM     26  CAJ VF1 A 407     118.970 153.186 142.185  0.00  0.00    +0.016 A 
ATOM     27  CAH VF1 A 407     118.429 152.942 140.921  0.00  0.00    -0.002 A 
ATOM     28  CAG VF1 A 407     117.805 151.745 140.664  0.00  0.00    +0.017 A 
ATOM     29  CAI VF1 A 407     117.682 150.802 141.678  0.00  0.00    -0.051 A 
ATOM     30  CAK VF1 A 407     118.224 151.052 142.931  0.00  0.00    +0.120 A 
ENDBRANCH  24  25
BRANCH  17  31
ATOM     31  OAT VF1 A 407     120.840 152.052 146.877  0.00  0.00    -0.660 OA
ATOM     32  CAA VF1 A 407     122.219 151.678 147.205  0.00  0.00    +0.411 C 
ENDBRANCH  17  31
TORSDOF 2
ENDMDL
MODEL 8
REMARK VINA RESULT:    -6.709      2.611      6.057
REMARK INTER + INTRA:          -8.342
REMARK INTER:                  -7.538
REMARK INTRA:                  -0.804
REMARK UNBOUND:                -0.848
REMARK  Name = Output/Trash/BU72_ligand_ligand_intermediary.pdb
REMARK  2 active torsions:
REMARK  status: ('A' for Active; 'I' for Inactive)
REMARK    1  A    between atoms: CBE_17  and  OAT_18
REMARK    2  A    between atoms: CAY_26  and  CAV_27
REMARK                            x       y       z     vdW  Elec       q    Type
REMARK                         _______ _______ _______ _____ _____    ______ ____
ROOT
ATOM      1  CAP VF1 A 407     121.343 153.925 142.482  0.00  0.00    -0.017 C 
ATOM      2  CAO VF1 A 407     120.989 155.380 142.257  0.00  0.00    +0.278 C 
ATOM      3  NBB VF1 A 407     119.525 155.552 142.152  0.00  0.00    -0.604 NA
ATOM      4  CAB VF1 A 407     119.221 156.938 141.824  0.00  0.00    +0.239 C 
ATOM      5  CAZ VF1 A 407     118.846 155.123 143.389  0.00  0.00    +0.492 C 
ATOM      6  CAQ VF1 A 407     119.269 155.827 144.681  0.00  0.00    -0.201 C 
ATOM      7  CAW VF1 A 407     120.411 155.168 145.420  0.00  0.00    -0.014 A 
ATOM      8  CAM VF1 A 407     120.888 155.739 146.598  0.00  0.00    +0.124 A 
ATOM      9  CAL VF1 A 407     121.950 155.177 147.305  0.00  0.00    -0.383 A 
ATOM     10  CAU VF1 A 407     122.577 154.061 146.798  0.00  0.00    +0.847 A 
ATOM     11  OAD VF1 A 407     123.626 153.441 147.365  0.00  0.00    -0.392 OA
ATOM     12  CAN VF1 A 407     122.124 153.498 145.609  0.00  0.00    -0.351 A 
ATOM     13  CAX VF1 A 407     121.026 154.011 144.933  0.00  0.00    +0.008 A 
ATOM     14  CBF VF1 A 407     120.531 153.321 143.642  0.00  0.00    +0.095 C 
ATOM     15  CBA VF1 A 407     120.660 151.786 143.638  0.00  0.00    +0.021 C 
ATOM     16  NAS VF1 A 407     120.848 151.340 142.229  0.00  0.00    -0.391 NA
ATOM     17  CBE VF1 A 407     119.340 151.053 143.933  0.00  0.00    +0.789 C 
ATOM     18  CAF VF1 A 407     118.537 151.782 144.971  0.00  0.00    -0.272 C 
ATOM     19  CAE VF1 A 407     118.352 153.068 144.762  0.00  0.00    +0.097 C 
ATOM     20  CBD VF1 A 407     118.994 153.601 143.533  0.00  0.00    -0.321 C 
ATOM     21  CAR VF1 A 407     118.423 152.778 142.382  0.00  0.00    +0.194 C 
ATOM     22  CBC VF1 A 407     118.619 151.270 142.554  0.00  0.00    -0.474 C 
ATOM     23  CAC VF1 A 407     117.297 150.477 142.448  0.00  0.00    +0.092 C 
ATOM     24  CAY VF1 A 407     119.720 150.571 141.711  0.00  0.00    +0.511 C 
ENDROOT
BRANCH  24  25
ATOM     25  CAV VF1 A 407     119.596 150.584 140.200  0.00  0.00    -0.218 A 
ATOM     26  CAJ VF1 A 407     118.934 149.527 139.608  0.00  0.00    +0.016 A 
ATOM     27  CAH VF1 A 407     118.534 149.587 138.271  0.00  0.00    -0.002 A 
ATOM     28  CAG VF1 A 407     118.831 150.697 137.518  0.00  0.00    +0.017 A 
ATOM     29  CAI VF1 A 407     119.565 151.735 138.082  0.00  0.00    -0.051 A 
ATOM     30  CAK VF1 A 407     119.958 151.667 139.412  0.00  0.00    +0.120 A 
ENDBRANCH  24  25
BRANCH  17  31
ATOM     31  OAT VF1 A 407     119.509 149.695 144.276  0.00  0.00    -0.660 OA
ATOM     32  CAA VF1 A 407     120.262 149.385 145.494  0.00  0.00    +0.411 C 
ENDBRANCH  17  31
TORSDOF 2
ENDMDL
MODEL 9
REMARK VINA RESULT:    -6.513      2.476      4.701
REMARK INTER + INTRA:          -8.123
REMARK INTER:                  -7.462
REMARK INTRA:                  -0.661
REMARK UNBOUND:                -0.848
REMARK  Name = Output/Trash/BU72_ligand_ligand_intermediary.pdb
REMARK  2 active torsions:
REMARK  status: ('A' for Active; 'I' for Inactive)
REMARK    1  A    between atoms: CBE_17  and  OAT_18
REMARK    2  A    between atoms: CAY_26  and  CAV_27
REMARK                            x       y       z     vdW  Elec       q    Type
REMARK                         _______ _______ _______ _____ _____    ______ ____
ROOT
ATOM      1  CAP VF1 A 407     121.150 151.981 142.017  0.00  0.00    -0.017 C 
ATOM      2  CAO VF1 A 407     120.795 150.809 142.909  0.00  0.00    +0.278 C 
ATOM      3  NBB VF1 A 407     119.943 151.248 144.034  0.00  0.00    -0.604 NA
ATOM      4  CAB VF1 A 407     119.711 150.127 144.934  0.00  0.00    +0.239 C 
ATOM      5  CAZ VF1 A 407     118.676 151.830 143.551  0.00  0.00    +0.492 C 
ATOM      6  CAQ VF1 A 407     117.800 150.930 142.675  0.00  0.00    -0.201 C 
ATOM      7  CAW VF1 A 407     118.076 151.023 141.192  0.00  0.00    -0.014 A 
ATOM      8  CAM VF1 A 407     117.349 150.231 140.306  0.00  0.00    +0.124 A 
ATOM      9  CAL VF1 A 407     117.579 150.269 138.933  0.00  0.00    -0.383 A 
ATOM     10  CAU VF1 A 407     118.587 151.070 138.444  0.00  0.00    +0.847 A 
ATOM     11  OAD VF1 A 407     118.928 151.177 137.148  0.00  0.00    -0.392 OA
ATOM     12  CAN VF1 A 407     119.335 151.847 139.323  0.00  0.00    -0.351 A 
ATOM     13  CAX VF1 A 407     119.070 151.866 140.685  0.00  0.00    +0.008 A 
ATOM     14  CBF VF1 A 407     119.898 152.780 141.614  0.00  0.00    +0.095 C 
ATOM     15  CBA VF1 A 407     120.308 154.131 140.995  0.00  0.00    +0.021 C 
ATOM     16  NAS VF1 A 407     121.591 154.557 141.619  0.00  0.00    -0.391 NA
ATOM     17  CBE VF1 A 407     119.432 155.311 141.449  0.00  0.00    +0.789 C 
ATOM     18  CAF VF1 A 407     117.994 154.899 141.582  0.00  0.00    -0.272 C 
ATOM     19  CAE VF1 A 407     117.767 153.813 142.289  0.00  0.00    +0.097 C 
ATOM     20  CBD VF1 A 407     118.982 153.150 142.829  0.00  0.00    -0.321 C 
ATOM     21  CAR VF1 A 407     119.685 154.209 143.673  0.00  0.00    +0.194 C 
ATOM     22  CBC VF1 A 407     119.995 155.496 142.905  0.00  0.00    -0.474 C 
ATOM     23  CAC VF1 A 407     119.437 156.759 143.598  0.00  0.00    +0.092 C 
ATOM     24  CAY VF1 A 407     121.460 155.747 142.454  0.00  0.00    +0.511 C 
ENDROOT
BRANCH  24  25
ATOM     25  CAV VF1 A 407     122.533 155.887 143.517  0.00  0.00    -0.218 A 
ATOM     26  CAJ VF1 A 407     123.323 157.019 143.476  0.00  0.00    +0.016 A 
ATOM     27  CAH VF1 A 407     124.138 157.365 144.556  0.00  0.00    -0.002 A 
ATOM     28  CAG VF1 A 407     124.187 156.552 145.663  0.00  0.00    +0.017 A 
ATOM     29  CAI VF1 A 407     123.456 155.370 145.682  0.00  0.00    -0.051 A 
ATOM     30  CAK VF1 A 407     122.647 155.035 144.605  0.00  0.00    +0.120 A 
ENDBRANCH  24  25
BRANCH  17  31
ATOM     31  OAT VF1 A 407     119.563 156.460 140.642  0.00  0.00    -0.660 OA
ATOM     32  CAA VF1 A 407     118.340 157.065 140.108  0.00  0.00    +0.411 C 
ENDBRANCH  17  31
TORSDOF 2
ENDMDL
