MODEL 1
REMARK VINA RESULT:    -8.181      0.000      0.000
REMARK INTER + INTRA:         -12.601
REMARK INTER:                 -12.007
REMARK INTRA:                  -0.594
REMARK UNBOUND:                -0.594
REMARK  Name = Output/Trash/CarfentanilSDF_ligand_intermediary.pdb
REMARK  10 active torsions:
REMARK  status: ('A' for Active; 'I' for Inactive)
REMARK    1  A    between atoms: O1_1  and  C7_12
REMARK    2  A    between atoms: O1_1  and  C16_21
REMARK    3  A    between atoms: N1_4  and  C6_11
REMARK    4  A    between atoms: N2_5  and  C1_6
REMARK    5  A    between atoms: N2_5  and  C8_13
REMARK    6  A    between atoms: C1_6  and  C7_12
REMARK    7  A    between atoms: C6_11  and  C9_14
REMARK    8  A    between atoms: C9_14  and  C12_17
REMARK    9  A    between atoms: C10_15  and  C11_16
REMARK   10  A    between atoms: C11_16  and  C15_20
REMARK                            x       y       z     vdW  Elec       q    Type
REMARK                         _______ _______ _______ _____ _____    ______ ____
ROOT
ATOM      1  N1  UNL     1     124.155 117.833  92.783  0.00  0.00    -0.626 NA
ATOM      2  C1  UNL     1     121.327 118.582  92.268  0.00  0.00    +0.807 C 
ATOM      3  C2  UNL     1     122.394 119.541  92.883  0.00  0.00    -0.500 C 
ATOM      4  C3  UNL     1     121.799 117.118  92.513  0.00  0.00    -0.403 C 
ATOM      5  C4  UNL     1     123.807 119.213  92.393  0.00  0.00    +0.435 C 
ATOM      6  C5  UNL     1     123.261 116.878  92.103  0.00  0.00    +0.437 C 
ENDROOT
BRANCH   2   8
ATOM      7  O3  UNL     1     119.084 116.762  92.082  0.00  0.00    -0.790 OA
ATOM      8  N2  UNL     1     119.991 118.773  92.903  0.00  0.00    -1.606 N 
ATOM      9  C10 UNL     1     118.877 117.903  92.578  0.00  0.00    +1.930 C 
BRANCH   8  10
ATOM     10  C8  UNL     1     119.822 119.671  94.015  0.00  0.00    +1.627 A 
ATOM     11  C13 UNL     1     119.362 120.979  93.804  0.00  0.00    -0.760 A 
ATOM     12  C14 UNL     1     120.097 119.235  95.320  0.00  0.00    -0.882 A 
ATOM     13  C17 UNL     1     119.196 121.848  94.887  0.00  0.00    +0.440 A 
ATOM     14  C18 UNL     1     119.932 120.106  96.401  0.00  0.00    +0.494 A 
ATOM     15  C21 UNL     1     119.483 121.412  96.184  0.00  0.00    -0.404 A 
ENDBRANCH   8  10
BRANCH   9  16
ATOM     16  C11 UNL     1     117.453 118.358  92.747  0.00  0.00    -0.673 C 
ATOM     17  C15 UNL     1     116.612 117.928  91.551  0.00  0.00    +0.162 C 
ENDBRANCH   9  16
ENDBRANCH   2   8
BRANCH   2  19
ATOM     18  O2  UNL     1     121.090 120.105  90.390  0.00  0.00    -0.683 OA
ATOM     19  C7  UNL     1     121.206 118.912  90.786  0.00  0.00    +1.357 C 
BRANCH  19  20
ATOM     20  O1  UNL     1     121.284 117.872  89.854  0.00  0.00    -0.948 OA
ATOM     21  C16 UNL     1     122.111 117.937  88.699  0.00  0.00    +0.364 C 
ENDBRANCH  19  20
ENDBRANCH   2  19
BRANCH   1  22
ATOM     22  C6  UNL     1     125.574 117.533  92.492  0.00  0.00    +0.436 C 
BRANCH  22  23
ATOM     23  C9  UNL     1     126.305 118.782  91.977  0.00  0.00    -0.551 C 
BRANCH  23  24
ATOM     24  C12 UNL     1     127.576 119.027  92.748  0.00  0.00    +0.857 A 
ATOM     25  C19 UNL     1     127.656 118.689  94.111  0.00  0.00    -0.349 A 
ATOM     26  C20 UNL     1     128.715 119.527  92.096  0.00  0.00    -0.402 A 
ATOM     27  C22 UNL     1     128.853 118.863  94.811  0.00  0.00    +0.188 A 
ATOM     28  C23 UNL     1     129.909 119.703  92.802  0.00  0.00    +0.219 A 
ATOM     29  C24 UNL     1     129.978 119.372  94.158  0.00  0.00    -0.177 A 
ENDBRANCH  23  24
ENDBRANCH  22  23
ENDBRANCH   1  22
TORSDOF 8
ENDMDL
MODEL 2
REMARK VINA RESULT:    -8.112      1.503      2.348
REMARK INTER + INTRA:         -12.500
REMARK INTER:                 -11.940
REMARK INTRA:                  -0.560
REMARK UNBOUND:                -0.594
REMARK  Name = Output/Trash/CarfentanilSDF_ligand_intermediary.pdb
REMARK  10 active torsions:
REMARK  status: ('A' for Active; 'I' for Inactive)
REMARK    1  A    between atoms: O1_1  and  C7_12
REMARK    2  A    between atoms: O1_1  and  C16_21
REMARK    3  A    between atoms: N1_4  and  C6_11
REMARK    4  A    between atoms: N2_5  and  C1_6
REMARK    5  A    between atoms: N2_5  and  C8_13
REMARK    6  A    between atoms: C1_6  and  C7_12
REMARK    7  A    between atoms: C6_11  and  C9_14
REMARK    8  A    between atoms: C9_14  and  C12_17
REMARK    9  A    between atoms: C10_15  and  C11_16
REMARK   10  A    between atoms: C11_16  and  C15_20
REMARK                            x       y       z     vdW  Elec       q    Type
REMARK                         _______ _______ _______ _____ _____    ______ ____
ROOT
ATOM      1  N1  UNL     1     124.202 119.051  92.711  0.00  0.00    -0.626 NA
ATOM      2  C1  UNL     1     121.260 119.015  92.306  0.00  0.00    +0.807 C 
ATOM      3  C2  UNL     1     122.092 120.302  92.601  0.00  0.00    -0.500 C 
ATOM      4  C3  UNL     1     122.072 117.789  92.816  0.00  0.00    -0.403 C 
ATOM      5  C4  UNL     1     123.523 120.191  92.067  0.00  0.00    +0.435 C 
ATOM      6  C5  UNL     1     123.534 117.791  92.337  0.00  0.00    +0.437 C 
ENDROOT
BRANCH   2   8
ATOM      7  O3  UNL     1     119.265 116.918  92.261  0.00  0.00    -0.790 OA
ATOM      8  N2  UNL     1     119.941 119.047  93.004  0.00  0.00    -1.606 N 
ATOM      9  C10 UNL     1     118.935 118.034  92.748  0.00  0.00    +1.930 C 
BRANCH   8  10
ATOM     10  C8  UNL     1     119.710 119.939  94.109  0.00  0.00    +1.627 A 
ATOM     11  C13 UNL     1     120.050 119.551  95.414  0.00  0.00    -0.760 A 
ATOM     12  C14 UNL     1     119.160 121.211  93.885  0.00  0.00    -0.882 A 
ATOM     13  C17 UNL     1     119.825 120.422  96.485  0.00  0.00    +0.440 A 
ATOM     14  C18 UNL     1     118.936 122.078  94.957  0.00  0.00    +0.494 A 
ATOM     15  C21 UNL     1     119.267 121.683  96.257  0.00  0.00    -0.404 A 
ENDBRANCH   8  10
BRANCH   9  16
ATOM     16  C11 UNL     1     117.474 118.305  92.981  0.00  0.00    -0.673 C 
ATOM     17  C15 UNL     1     116.674 118.024  91.714  0.00  0.00    +0.162 C 
ENDBRANCH   9  16
ENDBRANCH   2   8
BRANCH   2  19
ATOM     18  O2  UNL     1     120.408 119.897  90.209  0.00  0.00    -0.683 OA
ATOM     19  C7  UNL     1     121.006 118.960  90.805  0.00  0.00    +1.357 C 
BRANCH  19  20
ATOM     20  O1  UNL     1     121.503 117.873  90.077  0.00  0.00    -0.948 OA
ATOM     21  C16 UNL     1     120.692 117.107  89.194  0.00  0.00    +0.364 C 
ENDBRANCH  19  20
ENDBRANCH   2  19
BRANCH   1  22
ATOM     22  C6  UNL     1     125.639 119.013  92.364  0.00  0.00    +0.436 C 
BRANCH  22  23
ATOM     23  C9  UNL     1     126.362 117.902  93.139  0.00  0.00    -0.551 C 
BRANCH  23  24
ATOM     24  C12 UNL     1     126.891 116.841  92.208  0.00  0.00    +0.857 A 
ATOM     25  C19 UNL     1     126.316 115.558  92.195  0.00  0.00    -0.349 A 
ATOM     26  C20 UNL     1     127.913 117.146  91.295  0.00  0.00    -0.402 A 
ATOM     27  C22 UNL     1     126.769 114.593  91.292  0.00  0.00    +0.188 A 
ATOM     28  C23 UNL     1     128.365 116.176  90.395  0.00  0.00    +0.219 A 
ATOM     29  C24 UNL     1     127.795 114.900  90.394  0.00  0.00    -0.177 A 
ENDBRANCH  23  24
ENDBRANCH  22  23
ENDBRANCH   1  22
TORSDOF 8
ENDMDL
MODEL 3
REMARK VINA RESULT:    -8.031      2.108      4.322
REMARK INTER + INTRA:         -12.381
REMARK INTER:                 -11.701
REMARK INTRA:                  -0.680
REMARK UNBOUND:                -0.594
REMARK  Name = Output/Trash/CarfentanilSDF_ligand_intermediary.pdb
REMARK  10 active torsions:
REMARK  status: ('A' for Active; 'I' for Inactive)
REMARK    1  A    between atoms: O1_1  and  C7_12
REMARK    2  A    between atoms: O1_1  and  C16_21
REMARK    3  A    between atoms: N1_4  and  C6_11
REMARK    4  A    between atoms: N2_5  and  C1_6
REMARK    5  A    between atoms: N2_5  and  C8_13
REMARK    6  A    between atoms: C1_6  and  C7_12
REMARK    7  A    between atoms: C6_11  and  C9_14
REMARK    8  A    between atoms: C9_14  and  C12_17
REMARK    9  A    between atoms: C10_15  and  C11_16
REMARK   10  A    between atoms: C11_16  and  C15_20
REMARK                            x       y       z     vdW  Elec       q    Type
REMARK                         _______ _______ _______ _____ _____    ______ ____
ROOT
ATOM      1  N1  UNL     1     123.942 118.639  92.261  0.00  0.00    -0.626 NA
ATOM      2  C1  UNL     1     121.190 117.823  93.021  0.00  0.00    +0.807 C 
ATOM      3  C2  UNL     1     122.302 116.835  92.550  0.00  0.00    -0.500 C 
ATOM      4  C3  UNL     1     121.550 119.242  92.492  0.00  0.00    -0.403 C 
ATOM      5  C4  UNL     1     123.703 117.338  92.912  0.00  0.00    +0.435 C 
ATOM      6  C5  UNL     1     123.004 119.647  92.791  0.00  0.00    +0.437 C 
ENDROOT
BRANCH   2   8
ATOM      7  O3  UNL     1     118.776 119.415  93.163  0.00  0.00    -0.790 OA
ATOM      8  N2  UNL     1     119.852 117.433  92.489  0.00  0.00    -1.606 N 
ATOM      9  C10 UNL     1     118.668 118.214  92.793  0.00  0.00    +1.930 C 
BRANCH   8  10
ATOM     10  C8  UNL     1     119.726 116.414  91.480  0.00  0.00    +1.627 A 
ATOM     11  C13 UNL     1     119.494 115.080  91.849  0.00  0.00    -0.760 A 
ATOM     12  C14 UNL     1     119.814 116.752  90.121  0.00  0.00    -0.882 A 
ATOM     13  C17 UNL     1     119.370 114.092  90.867  0.00  0.00    +0.440 A 
ATOM     14  C18 UNL     1     119.690 115.762  89.142  0.00  0.00    +0.494 A 
ATOM     15  C21 UNL     1     119.470 114.433  89.515  0.00  0.00    -0.404 A 
ENDBRANCH   8  10
BRANCH   9  16
ATOM     16  C11 UNL     1     117.295 117.601  92.754  0.00  0.00    -0.673 C 
ATOM     17  C15 UNL     1     116.544 118.063  91.509  0.00  0.00    +0.162 C 
ENDBRANCH   9  16
ENDBRANCH   2   8
BRANCH   2  19
ATOM     18  O2  UNL     1     121.077 116.664  95.154  0.00  0.00    -0.683 OA
ATOM     19  C7  UNL     1     121.134 117.767  94.543  0.00  0.00    +1.357 C 
BRANCH  19  20
ATOM     20  O1  UNL     1     121.208 118.963  95.265  0.00  0.00    -0.948 OA
ATOM     21  C16 UNL     1     120.578 119.137  96.528  0.00  0.00    +0.364 C 
ENDBRANCH  19  20
ENDBRANCH   2  19
BRANCH   1  22
ATOM     22  C6  UNL     1     125.344 119.078  92.433  0.00  0.00    +0.436 C 
BRANCH  22  23
ATOM     23  C9  UNL     1     126.236 117.906  92.867  0.00  0.00    -0.551 C 
BRANCH  23  24
ATOM     24  C12 UNL     1     127.680 118.326  92.971  0.00  0.00    +0.857 A 
ATOM     25  C19 UNL     1     128.499 118.337  91.828  0.00  0.00    -0.349 A 
ATOM     26  C20 UNL     1     128.199 118.782  94.193  0.00  0.00    -0.402 A 
ATOM     27  C22 UNL     1     129.821 118.781  91.913  0.00  0.00    +0.188 A 
ATOM     28  C23 UNL     1     129.524 119.223  94.275  0.00  0.00    +0.219 A 
ATOM     29  C24 UNL     1     130.334 119.222  93.136  0.00  0.00    -0.177 A 
ENDBRANCH  23  24
ENDBRANCH  22  23
ENDBRANCH   1  22
TORSDOF 8
ENDMDL
MODEL 4
REMARK VINA RESULT:    -7.623      2.620      4.558
REMARK INTER + INTRA:         -11.782
REMARK INTER:                 -11.279
REMARK INTRA:                  -0.503
REMARK UNBOUND:                -0.594
REMARK  Name = Output/Trash/CarfentanilSDF_ligand_intermediary.pdb
REMARK  10 active torsions:
REMARK  status: ('A' for Active; 'I' for Inactive)
REMARK    1  A    between atoms: O1_1  and  C7_12
REMARK    2  A    between atoms: O1_1  and  C16_21
REMARK    3  A    between atoms: N1_4  and  C6_11
REMARK    4  A    between atoms: N2_5  and  C1_6
REMARK    5  A    between atoms: N2_5  and  C8_13
REMARK    6  A    between atoms: C1_6  and  C7_12
REMARK    7  A    between atoms: C6_11  and  C9_14
REMARK    8  A    between atoms: C9_14  and  C12_17
REMARK    9  A    between atoms: C10_15  and  C11_16
REMARK   10  A    between atoms: C11_16  and  C15_20
REMARK                            x       y       z     vdW  Elec       q    Type
REMARK                         _______ _______ _______ _____ _____    ______ ____
ROOT
ATOM      1  N1  UNL     1     123.803 119.065  92.257  0.00  0.00    -0.626 NA
ATOM      2  C1  UNL     1     121.158 117.894  92.929  0.00  0.00    +0.807 C 
ATOM      3  C2  UNL     1     122.340 117.095  92.296  0.00  0.00    -0.500 C 
ATOM      4  C3  UNL     1     121.375 119.403  92.614  0.00  0.00    -0.403 C 
ATOM      5  C4  UNL     1     123.700 117.665  92.708  0.00  0.00    +0.435 C 
ATOM      6  C5  UNL     1     122.795 119.892  92.947  0.00  0.00    +0.437 C 
ENDROOT
BRANCH   2   8
ATOM      7  O3  UNL     1     118.660 119.339  93.155  0.00  0.00    -0.790 OA
ATOM      8  N2  UNL     1     119.845 117.465  92.365  0.00  0.00    -1.606 N 
ATOM      9  C10 UNL     1     118.620 118.160  92.710  0.00  0.00    +1.930 C 
BRANCH   8  10
ATOM     10  C8  UNL     1     119.778 116.506  91.294  0.00  0.00    +1.627 A 
ATOM     11  C13 UNL     1     119.995 116.910  89.968  0.00  0.00    -0.760 A 
ATOM     12  C14 UNL     1     119.513 115.156  91.572  0.00  0.00    -0.882 A 
ATOM     13  C17 UNL     1     119.931 115.975  88.930  0.00  0.00    +0.440 A 
ATOM     14  C18 UNL     1     119.449 114.224  90.533  0.00  0.00    +0.494 A 
ATOM     15  C21 UNL     1     119.656 114.634  89.213  0.00  0.00    -0.404 A 
ENDBRANCH   8  10
BRANCH   9  16
ATOM     16  C11 UNL     1     117.282 117.477  92.623  0.00  0.00    -0.673 C 
ATOM     17  C15 UNL     1     116.509 117.976  91.408  0.00  0.00    +0.162 C 
ENDBRANCH   9  16
ENDBRANCH   2   8
BRANCH   2  19
ATOM     18  O2  UNL     1     121.258 118.541  95.269  0.00  0.00    -0.683 OA
ATOM     19  C7  UNL     1     121.153 117.608  94.426  0.00  0.00    +1.357 C 
BRANCH  19  20
ATOM     20  O1  UNL     1     120.968 116.291  94.860  0.00  0.00    -0.948 OA
ATOM     21  C16 UNL     1     121.462 115.819  96.107  0.00  0.00    +0.364 C 
ENDBRANCH  19  20
ENDBRANCH   2  19
BRANCH   1  22
ATOM     22  C6  UNL     1     125.165 119.601  92.471  0.00  0.00    +0.436 C 
BRANCH  22  23
ATOM     23  C9  UNL     1     125.938 119.682  91.147  0.00  0.00    -0.551 C 
BRANCH  23  24
ATOM     24  C12 UNL     1     126.692 120.982  91.032  0.00  0.00    +0.857 A 
ATOM     25  C19 UNL     1     126.026 122.207  91.217  0.00  0.00    -0.349 A 
ATOM     26  C20 UNL     1     128.079 120.979  90.813  0.00  0.00    -0.402 A 
ATOM     27  C22 UNL     1     126.737 123.409  91.167  0.00  0.00    +0.188 A 
ATOM     28  C23 UNL     1     128.785 122.185  90.761  0.00  0.00    +0.219 A 
ATOM     29  C24 UNL     1     128.115 123.399  90.938  0.00  0.00    -0.177 A 
ENDBRANCH  23  24
ENDBRANCH  22  23
ENDBRANCH   1  22
TORSDOF 8
ENDMDL
MODEL 5
REMARK VINA RESULT:    -7.398      2.427      7.722
REMARK INTER + INTRA:         -11.453
REMARK INTER:                 -11.339
REMARK INTRA:                  -0.114
REMARK UNBOUND:                -0.594
REMARK  Name = Output/Trash/CarfentanilSDF_ligand_intermediary.pdb
REMARK  10 active torsions:
REMARK  status: ('A' for Active; 'I' for Inactive)
REMARK    1  A    between atoms: O1_1  and  C7_12
REMARK    2  A    between atoms: O1_1  and  C16_21
REMARK    3  A    between atoms: N1_4  and  C6_11
REMARK    4  A    between atoms: N2_5  and  C1_6
REMARK    5  A    between atoms: N2_5  and  C8_13
REMARK    6  A    between atoms: C1_6  and  C7_12
REMARK    7  A    between atoms: C6_11  and  C9_14
REMARK    8  A    between atoms: C9_14  and  C12_17
REMARK    9  A    between atoms: C10_15  and  C11_16
REMARK   10  A    between atoms: C11_16  and  C15_20
REMARK                            x       y       z     vdW  Elec       q    Type
REMARK                         _______ _______ _______ _____ _____    ______ ____
ROOT
ATOM      1  N1  UNL     1     122.335 119.500  91.686  0.00  0.00    -0.626 NA
ATOM      2  C1  UNL     1     125.272 119.074  91.556  0.00  0.00    +0.807 C 
ATOM      3  C2  UNL     1     124.260 118.562  90.484  0.00  0.00    -0.500 C 
ATOM      4  C3  UNL     1     124.493 119.296  92.887  0.00  0.00    -0.403 C 
ATOM      5  C4  UNL     1     123.028 119.467  90.384  0.00  0.00    +0.435 C 
ATOM      6  C5  UNL     1     123.206 120.118  92.703  0.00  0.00    +0.437 C 
ENDROOT
BRANCH   2   8
ATOM      7  O3  UNL     1     125.664 116.600  90.106  0.00  0.00    -0.790 OA
ATOM      8  N2  UNL     1     126.363 118.085  91.793  0.00  0.00    -1.606 N 
ATOM      9  C10 UNL     1     126.348 116.785  91.150  0.00  0.00    +1.930 C 
BRANCH   8  10
ATOM     10  C8  UNL     1     127.571 118.465  92.478  0.00  0.00    +1.627 A 
ATOM     11  C13 UNL     1     127.581 118.589  93.876  0.00  0.00    -0.760 A 
ATOM     12  C14 UNL     1     128.749 118.696  91.753  0.00  0.00    -0.882 A 
ATOM     13  C17 UNL     1     128.756 118.957  94.538  0.00  0.00    +0.440 A 
ATOM     14  C18 UNL     1     129.922 119.064  92.418  0.00  0.00    +0.494 A 
ATOM     15  C21 UNL     1     129.925 119.196  93.809  0.00  0.00    -0.404 A 
ENDBRANCH   8  10
BRANCH   9  16
ATOM     16  C11 UNL     1     127.076 115.609  91.742  0.00  0.00    -0.673 C 
ATOM     17  C15 UNL     1     127.519 114.651  90.643  0.00  0.00    +0.162 C 
ENDBRANCH   9  16
ENDBRANCH   2   8
BRANCH   2  19
ATOM     18  O2  UNL     1     126.043 121.368  91.774  0.00  0.00    -0.683 OA
ATOM     19  C7  UNL     1     125.896 120.360  91.029  0.00  0.00    +1.357 C 
BRANCH  19  20
ATOM     20  O1  UNL     1     126.364 120.391  89.711  0.00  0.00    -0.948 OA
ATOM     21  C16 UNL     1     126.123 121.487  88.837  0.00  0.00    +0.364 C 
ENDBRANCH  19  20
ENDBRANCH   2  19
BRANCH   1  22
ATOM     22  C6  UNL     1     121.043 120.213  91.591  0.00  0.00    +0.436 C 
BRANCH  22  23
ATOM     23  C9  UNL     1     119.956 119.489  92.398  0.00  0.00    -0.551 C 
BRANCH  23  24
ATOM     24  C12 UNL     1     119.757 120.131  93.747  0.00  0.00    +0.857 A 
ATOM     25  C19 UNL     1     120.084 119.429  94.921  0.00  0.00    -0.349 A 
ATOM     26  C20 UNL     1     119.314 121.460  93.841  0.00  0.00    -0.402 A 
ATOM     27  C22 UNL     1     119.954 120.045  96.168  0.00  0.00    +0.188 A 
ATOM     28  C23 UNL     1     119.183 122.071  95.092  0.00  0.00    +0.219 A 
ATOM     29  C24 UNL     1     119.502 121.365  96.254  0.00  0.00    -0.177 A 
ENDBRANCH  23  24
ENDBRANCH  22  23
ENDBRANCH   1  22
TORSDOF 8
ENDMDL
MODEL 6
REMARK VINA RESULT:    -7.282      2.800      5.533
REMARK INTER + INTRA:         -11.282
REMARK INTER:                 -11.242
REMARK INTRA:                  -0.040
REMARK UNBOUND:                -0.594
REMARK  Name = Output/Trash/CarfentanilSDF_ligand_intermediary.pdb
REMARK  10 active torsions:
REMARK  status: ('A' for Active; 'I' for Inactive)
REMARK    1  A    between atoms: O1_1  and  C7_12
REMARK    2  A    between atoms: O1_1  and  C16_21
REMARK    3  A    between atoms: N1_4  and  C6_11
REMARK    4  A    between atoms: N2_5  and  C1_6
REMARK    5  A    between atoms: N2_5  and  C8_13
REMARK    6  A    between atoms: C1_6  and  C7_12
REMARK    7  A    between atoms: C6_11  and  C9_14
REMARK    8  A    between atoms: C9_14  and  C12_17
REMARK    9  A    between atoms: C10_15  and  C11_16
REMARK   10  A    between atoms: C11_16  and  C15_20
REMARK                            x       y       z     vdW  Elec       q    Type
REMARK                         _______ _______ _______ _____ _____    ______ ____
ROOT
ATOM      1  N1  UNL     1     122.285 117.111  89.369  0.00  0.00    -0.626 NA
ATOM      2  C1  UNL     1     121.112 118.337  91.807  0.00  0.00    +0.807 C 
ATOM      3  C2  UNL     1     121.421 116.815  91.648  0.00  0.00    -0.500 C 
ATOM      4  C3  UNL     1     120.972 118.951  90.383  0.00  0.00    -0.403 C 
ATOM      5  C4  UNL     1     122.600 116.568  90.704  0.00  0.00    +0.435 C 
ATOM      6  C5  UNL     1     122.133 118.576  89.446  0.00  0.00    +0.437 C 
ENDROOT
BRANCH   2   8
ATOM      7  O3  UNL     1     118.839 116.546  91.871  0.00  0.00    -0.790 OA
ATOM      8  N2  UNL     1     119.843 118.561  92.559  0.00  0.00    -1.606 N 
ATOM      9  C10 UNL     1     118.693 117.701  92.359  0.00  0.00    +1.930 C 
BRANCH   8  10
ATOM     10  C8  UNL     1     119.790 119.484  93.662  0.00  0.00    +1.627 A 
ATOM     11  C13 UNL     1     119.533 120.844  93.432  0.00  0.00    -0.760 A 
ATOM     12  C14 UNL     1     119.975 119.025  94.974  0.00  0.00    -0.882 A 
ATOM     13  C17 UNL     1     119.480 121.738  94.506  0.00  0.00    +0.440 A 
ATOM     14  C18 UNL     1     119.922 119.921  96.046  0.00  0.00    +0.494 A 
ATOM     15  C21 UNL     1     119.677 121.277  95.811  0.00  0.00    -0.404 A 
ENDBRANCH   8  10
BRANCH   9  16
ATOM     16  C11 UNL     1     117.297 118.180  92.650  0.00  0.00    -0.673 C 
ATOM     17  C15 UNL     1     116.416 118.027  91.415  0.00  0.00    +0.162 C 
ENDBRANCH   9  16
ENDBRANCH   2   8
BRANCH   2  19
ATOM     18  O2  UNL     1     122.826 118.329  93.529  0.00  0.00    -0.683 OA
ATOM     19  C7  UNL     1     122.255 118.961  92.599  0.00  0.00    +1.357 C 
BRANCH  19  20
ATOM     20  O1  UNL     1     122.707 120.235  92.238  0.00  0.00    -0.948 OA
ATOM     21  C16 UNL     1     124.088 120.569  92.175  0.00  0.00    +0.364 C 
ENDBRANCH  19  20
ENDBRANCH   2  19
BRANCH   1  22
ATOM     22  C6  UNL     1     123.317 116.737  88.377  0.00  0.00    +0.436 C 
BRANCH  22  23
ATOM     23  C9  UNL     1     122.674 116.163  87.107  0.00  0.00    -0.551 C 
BRANCH  23  24
ATOM     24  C12 UNL     1     122.542 114.664  87.189  0.00  0.00    +0.857 A 
ATOM     25  C19 UNL     1     121.662 114.079  88.118  0.00  0.00    -0.349 A 
ATOM     26  C20 UNL     1     123.240 113.841  86.291  0.00  0.00    -0.402 A 
ATOM     27  C22 UNL     1     121.498 112.692  88.155  0.00  0.00    +0.188 A 
ATOM     28  C23 UNL     1     123.075 112.453  86.334  0.00  0.00    +0.219 A 
ATOM     29  C24 UNL     1     122.205 111.879  87.265  0.00  0.00    -0.177 A 
ENDBRANCH  23  24
ENDBRANCH  22  23
ENDBRANCH   1  22
TORSDOF 8
ENDMDL
MODEL 7
REMARK VINA RESULT:    -7.251      3.270      8.652
REMARK INTER + INTRA:         -11.236
REMARK INTER:                 -11.029
REMARK INTRA:                  -0.207
REMARK UNBOUND:                -0.594
REMARK  Name = Output/Trash/CarfentanilSDF_ligand_intermediary.pdb
REMARK  10 active torsions:
REMARK  status: ('A' for Active; 'I' for Inactive)
REMARK    1  A    between atoms: O1_1  and  C7_12
REMARK    2  A    between atoms: O1_1  and  C16_21
REMARK    3  A    between atoms: N1_4  and  C6_11
REMARK    4  A    between atoms: N2_5  and  C1_6
REMARK    5  A    between atoms: N2_5  and  C8_13
REMARK    6  A    between atoms: C1_6  and  C7_12
REMARK    7  A    between atoms: C6_11  and  C9_14
REMARK    8  A    between atoms: C9_14  and  C12_17
REMARK    9  A    between atoms: C10_15  and  C11_16
REMARK   10  A    between atoms: C11_16  and  C15_20
REMARK                            x       y       z     vdW  Elec       q    Type
REMARK                         _______ _______ _______ _____ _____    ______ ____
ROOT
ATOM      1  N1  UNL     1     123.984 119.966  91.999  0.00  0.00    -0.626 NA
ATOM      2  C1  UNL     1     126.833 119.738  91.189  0.00  0.00    +0.807 C 
ATOM      3  C2  UNL     1     126.266 119.254  92.560  0.00  0.00    -0.500 C 
ATOM      4  C3  UNL     1     125.860 120.811  90.617  0.00  0.00    -0.403 C 
ATOM      5  C4  UNL     1     124.800 118.824  92.452  0.00  0.00    +0.435 C 
ATOM      6  C5  UNL     1     124.388 120.363  90.637  0.00  0.00    +0.437 C 
ENDROOT
BRANCH   2   8
ATOM      7  O3  UNL     1     129.134 118.469  92.402  0.00  0.00    -0.790 OA
ATOM      8  N2  UNL     1     128.187 120.345  91.342  0.00  0.00    -1.606 N 
ATOM      9  C10 UNL     1     129.209 119.701  92.145  0.00  0.00    +1.930 C 
BRANCH   8  10
ATOM     10  C8  UNL     1     128.596 121.456  90.524  0.00  0.00    +1.627 A 
ATOM     11  C13 UNL     1     128.488 122.768  91.010  0.00  0.00    -0.760 A 
ATOM     12  C14 UNL     1     129.124 121.233  89.244  0.00  0.00    -0.882 A 
ATOM     13  C17 UNL     1     128.888 123.846  90.214  0.00  0.00    +0.440 A 
ATOM     14  C18 UNL     1     129.523 122.312  88.450  0.00  0.00    +0.494 A 
ATOM     15  C21 UNL     1     129.403 123.618  88.934  0.00  0.00    -0.404 A 
ENDBRANCH   8  10
BRANCH   9  16
ATOM     16  C11 UNL     1     130.337 120.489  92.755  0.00  0.00    -0.673 C 
ATOM     17  C15 UNL     1     130.514 120.112  94.222  0.00  0.00    +0.162 C 
ENDBRANCH   9  16
ENDBRANCH   2   8
BRANCH   2  19
ATOM     18  O2  UNL     1     126.953 117.350  90.754  0.00  0.00    -0.683 OA
ATOM     19  C7  UNL     1     126.953 118.520  90.281  0.00  0.00    +1.357 C 
BRANCH  19  20
ATOM     20  O1  UNL     1     127.004 118.714  88.897  0.00  0.00    -0.948 OA
ATOM     21  C16 UNL     1     127.254 117.653  87.982  0.00  0.00    +0.364 C 
ENDBRANCH  19  20
ENDBRANCH   2  19
BRANCH   1  22
ATOM     22  C6  UNL     1     122.540 119.652  92.053  0.00  0.00    +0.436 C 
BRANCH  22  23
ATOM     23  C9  UNL     1     122.161 119.048  93.413  0.00  0.00    -0.551 C 
BRANCH  23  24
ATOM     24  C12 UNL     1     121.080 119.854  94.087  0.00  0.00    +0.857 A 
ATOM     25  C19 UNL     1     120.799 119.660  95.451  0.00  0.00    -0.349 A 
ATOM     26  C20 UNL     1     120.398 120.855  93.379  0.00  0.00    -0.402 A 
ATOM     27  C22 UNL     1     119.837 120.447  96.090  0.00  0.00    +0.188 A 
ATOM     28  C23 UNL     1     119.434 121.638  94.022  0.00  0.00    +0.219 A 
ATOM     29  C24 UNL     1     119.153 121.435  95.375  0.00  0.00    -0.177 A 
ENDBRANCH  23  24
ENDBRANCH  22  23
ENDBRANCH   1  22
TORSDOF 8
ENDMDL
MODEL 8
REMARK VINA RESULT:    -7.199      9.411     13.307
REMARK INTER + INTRA:         -11.160
REMARK INTER:                 -10.403
REMARK INTRA:                  -0.757
REMARK UNBOUND:                -0.594
REMARK  Name = Output/Trash/CarfentanilSDF_ligand_intermediary.pdb
REMARK  10 active torsions:
REMARK  status: ('A' for Active; 'I' for Inactive)
REMARK    1  A    between atoms: O1_1  and  C7_12
REMARK    2  A    between atoms: O1_1  and  C16_21
REMARK    3  A    between atoms: N1_4  and  C6_11
REMARK    4  A    between atoms: N2_5  and  C1_6
REMARK    5  A    between atoms: N2_5  and  C8_13
REMARK    6  A    between atoms: C1_6  and  C7_12
REMARK    7  A    between atoms: C6_11  and  C9_14
REMARK    8  A    between atoms: C9_14  and  C12_17
REMARK    9  A    between atoms: C10_15  and  C11_16
REMARK   10  A    between atoms: C11_16  and  C15_20
REMARK                            x       y       z     vdW  Elec       q    Type
REMARK                         _______ _______ _______ _____ _____    ______ ____
ROOT
ATOM      1  N1  UNL     1     125.722 125.440  84.540  0.00  0.00    -0.626 NA
ATOM      2  C1  UNL     1     128.317 124.046  84.913  0.00  0.00    +0.807 C 
ATOM      3  C2  UNL     1     127.003 123.676  85.668  0.00  0.00    -0.500 C 
ATOM      4  C3  UNL     1     128.195 125.521  84.429  0.00  0.00    -0.403 C 
ATOM      5  C4  UNL     1     125.757 123.996  84.837  0.00  0.00    +0.435 C 
ATOM      6  C5  UNL     1     126.874 125.809  83.696  0.00  0.00    +0.437 C 
ENDROOT
BRANCH   2   8
ATOM      7  O3  UNL     1     130.887 125.307  84.486  0.00  0.00    -0.790 OA
ATOM      8  N2  UNL     1     129.509 123.925  85.802  0.00  0.00    -1.606 N 
ATOM      9  C10 UNL     1     130.805 124.430  85.389  0.00  0.00    +1.930 C 
BRANCH   8  10
ATOM     10  C8  UNL     1     129.371 123.514  87.174  0.00  0.00    +1.627 A 
ATOM     11  C13 UNL     1     129.379 122.151  87.508  0.00  0.00    -0.760 A 
ATOM     12  C14 UNL     1     129.247 124.475  88.188  0.00  0.00    -0.882 A 
ATOM     13  C17 UNL     1     129.246 121.755  88.842  0.00  0.00    +0.440 A 
ATOM     14  C18 UNL     1     129.114 124.077  89.521  0.00  0.00    +0.494 A 
ATOM     15  C21 UNL     1     129.111 122.718  89.848  0.00  0.00    -0.404 A 
ENDBRANCH   8  10
BRANCH   9  16
ATOM     16  C11 UNL     1     132.081 123.876  85.962  0.00  0.00    -0.673 C 
ATOM     17  C15 UNL     1     132.453 122.572  85.266  0.00  0.00    +0.162 C 
ENDBRANCH   9  16
ENDBRANCH   2   8
BRANCH   2  19
ATOM     18  O2  UNL     1     128.207 121.842  83.896  0.00  0.00    -0.683 OA
ATOM     19  C7  UNL     1     128.480 123.067  83.757  0.00  0.00    +1.357 C 
BRANCH  19  20
ATOM     20  O1  UNL     1     128.882 123.557  82.510  0.00  0.00    -0.948 OA
ATOM     21  C16 UNL     1     130.063 123.110  81.855  0.00  0.00    +0.364 C 
ENDBRANCH  19  20
ENDBRANCH   2  19
BRANCH   1  22
ATOM     22  C6  UNL     1     124.448 125.827  83.895  0.00  0.00    +0.436 C 
BRANCH  22  23
ATOM     23  C9  UNL     1     124.533 125.665  82.371  0.00  0.00    -0.551 C 
BRANCH  23  24
ATOM     24  C12 UNL     1     123.177 125.392  81.772  0.00  0.00    +0.857 A 
ATOM     25  C19 UNL     1     122.034 125.359  82.592  0.00  0.00    -0.349 A 
ATOM     26  C20 UNL     1     123.033 125.240  80.384  0.00  0.00    -0.402 A 
ATOM     27  C22 UNL     1     120.770 125.162  82.029  0.00  0.00    +0.188 A 
ATOM     28  C23 UNL     1     121.766 125.041  79.826  0.00  0.00    +0.219 A 
ATOM     29  C24 UNL     1     120.636 125.001  80.647  0.00  0.00    -0.177 A 
ENDBRANCH  23  24
ENDBRANCH  22  23
ENDBRANCH   1  22
TORSDOF 8
ENDMDL
MODEL 9
REMARK VINA RESULT:    -7.069      2.802      8.164
REMARK INTER + INTRA:         -10.969
REMARK INTER:                 -10.224
REMARK INTRA:                  -0.745
REMARK UNBOUND:                -0.594
REMARK  Name = Output/Trash/CarfentanilSDF_ligand_intermediary.pdb
REMARK  10 active torsions:
REMARK  status: ('A' for Active; 'I' for Inactive)
REMARK    1  A    between atoms: O1_1  and  C7_12
REMARK    2  A    between atoms: O1_1  and  C16_21
REMARK    3  A    between atoms: N1_4  and  C6_11
REMARK    4  A    between atoms: N2_5  and  C1_6
REMARK    5  A    between atoms: N2_5  and  C8_13
REMARK    6  A    between atoms: C1_6  and  C7_12
REMARK    7  A    between atoms: C6_11  and  C9_14
REMARK    8  A    between atoms: C9_14  and  C12_17
REMARK    9  A    between atoms: C10_15  and  C11_16
REMARK   10  A    between atoms: C11_16  and  C15_20
REMARK                            x       y       z     vdW  Elec       q    Type
REMARK                         _______ _______ _______ _____ _____    ______ ____
ROOT
ATOM      1  N1  UNL     1     122.304 119.354  91.604  0.00  0.00    -0.626 NA
ATOM      2  C1  UNL     1     125.234 119.240  91.135  0.00  0.00    +0.807 C 
ATOM      3  C2  UNL     1     124.164 118.652  90.164  0.00  0.00    -0.500 C 
ATOM      4  C3  UNL     1     124.594 119.346  92.550  0.00  0.00    -0.403 C 
ATOM      5  C4  UNL     1     122.844 119.425  90.234  0.00  0.00    +0.435 C 
ATOM      6  C5  UNL     1     123.218 120.035  92.540  0.00  0.00    +0.437 C 
ENDROOT
BRANCH   2   8
ATOM      7  O3  UNL     1     127.356 119.444  93.094  0.00  0.00    -0.790 OA
ATOM      8  N2  UNL     1     126.439 118.364  91.214  0.00  0.00    -1.606 N 
ATOM      9  C10 UNL     1     127.538 118.681  92.106  0.00  0.00    +1.930 C 
BRANCH   8  10
ATOM     10  C8  UNL     1     126.456 117.069  90.585  0.00  0.00    +1.627 A 
ATOM     11  C13 UNL     1     126.859 116.938  89.248  0.00  0.00    -0.760 A 
ATOM     12  C14 UNL     1     126.087 115.928  91.313  0.00  0.00    -0.882 A 
ATOM     13  C17 UNL     1     126.876 115.678  88.641  0.00  0.00    +0.440 A 
ATOM     14  C18 UNL     1     126.103 114.671  90.704  0.00  0.00    +0.494 A 
ATOM     15  C21 UNL     1     126.496 114.546  89.368  0.00  0.00    -0.404 A 
ENDBRANCH   8  10
BRANCH   9  16
ATOM     16  C11 UNL     1     128.932 118.180  91.841  0.00  0.00    -0.673 C 
ATOM     17  C15 UNL     1     129.628 119.067  90.815  0.00  0.00    +0.162 C 
ENDBRANCH   9  16
ENDBRANCH   2   8
BRANCH   2  19
ATOM     18  O2  UNL     1     125.987 120.738  89.377  0.00  0.00    -0.683 OA
ATOM     19  C7  UNL     1     125.662 120.596  90.588  0.00  0.00    +1.357 C 
BRANCH  19  20
ATOM     20  O1  UNL     1     125.633 121.706  91.439  0.00  0.00    -0.948 OA
ATOM     21  C16 UNL     1     126.452 122.851  91.234  0.00  0.00    +0.364 C 
ENDBRANCH  19  20
ENDBRANCH   2  19
BRANCH   1  22
ATOM     22  C6  UNL     1     120.944 119.931  91.678  0.00  0.00    +0.436 C 
BRANCH  22  23
ATOM     23  C9  UNL     1     120.092 119.197  92.724  0.00  0.00    -0.551 C 
BRANCH  23  24
ATOM     24  C12 UNL     1     119.842 120.063  93.931  0.00  0.00    +0.857 A 
ATOM     25  C19 UNL     1     119.207 121.310  93.791  0.00  0.00    -0.349 A 
ATOM     26  C20 UNL     1     120.173 119.600  95.215  0.00  0.00    -0.402 A 
ATOM     27  C22 UNL     1     118.924 122.086  94.917  0.00  0.00    +0.188 A 
ATOM     28  C23 UNL     1     119.891 120.383  96.339  0.00  0.00    +0.219 A 
ATOM     29  C24 UNL     1     119.267 121.624  96.191  0.00  0.00    -0.177 A 
ENDBRANCH  23  24
ENDBRANCH  22  23
ENDBRANCH   1  22
TORSDOF 8
ENDMDL
