MODEL 1
REMARK VINA RESULT:    -7.026      0.000      0.000
REMARK INTER + INTRA:         -10.659
REMARK INTER:                  -9.901
REMARK INTRA:                  -0.758
REMARK UNBOUND:                -0.758
REMARK  Name = Output/Trash/Mthadone_ligand_intermediary.pdb
REMARK  11 active torsions:
REMARK  status: ('A' for Active; 'I' for Inactive)
REMARK    1  A    between atoms: C1_1  and  N1_2
REMARK    2  A    between atoms: N1_2  and  C2_3
REMARK    3  A    between atoms: N1_2  and  C3_4
REMARK    4  A    between atoms: C3_4  and  C4_5
REMARK    5  A    between atoms: C3_4  and  C5_6
REMARK    6  A    between atoms: C5_6  and  C6_7
REMARK    7  A    between atoms: C6_7  and  C7_8
REMARK    8  A    between atoms: C6_7  and  C13_14
REMARK    9  A    between atoms: C6_7  and  C19_20
REMARK   10  A    between atoms: C19_20  and  C20_22
REMARK   11  A    between atoms: C20_22  and  C21_23
REMARK                            x       y       z     vdW  Elec       q    Type
REMARK                         _______ _______ _______ _____ _____    ______ ____
ROOT
ATOM      1  C6  UNL     1     119.779 152.381 140.599  0.00  0.00    -0.503 C 
ENDROOT
BRANCH   1   2
ATOM      2  C7  UNL     1     120.818 153.199 139.797  0.00  0.00    +0.415 A 
ATOM      3  C8  UNL     1     120.481 153.720 138.527  0.00  0.00    -0.280 A 
ATOM      4  C9  UNL     1     121.429 154.392 137.751  0.00  0.00    +0.139 A 
ATOM      5  C10 UNL     1     122.739 154.531 138.209  0.00  0.00    -0.124 A 
ATOM      6  C11 UNL     1     123.107 153.982 139.436  0.00  0.00    +0.107 A 
ATOM      7  C12 UNL     1     122.164 153.308 140.217  0.00  0.00    -0.181 A 
ENDBRANCH   1   2
BRANCH   1   8
ATOM      8  C13 UNL     1     118.884 151.489 139.701  0.00  0.00    +0.388 A 
ATOM      9  C14 UNL     1     117.513 151.312 140.014  0.00  0.00    -0.270 A 
ATOM     10  C15 UNL     1     116.668 150.576 139.181  0.00  0.00    +0.133 A 
ATOM     11  C16 UNL     1     117.157 150.023 138.000  0.00  0.00    -0.113 A 
ATOM     12  C17 UNL     1     118.491 150.218 137.642  0.00  0.00    +0.087 A 
ATOM     13  C18 UNL     1     119.341 150.955 138.471  0.00  0.00    -0.188 A 
ENDBRANCH   1   8
BRANCH   1  14
ATOM     14  C19 UNL     1     120.487 151.404 141.558  0.00  0.00    +1.167 C 
ATOM     15  O1  UNL     1     121.361 150.659 141.134  0.00  0.00    -0.568 OA
BRANCH  14  16
ATOM     16  C20 UNL     1     120.188 151.359 143.041  0.00  0.00    -0.341 C 
ATOM     17  C21 UNL     1     119.127 150.309 143.359  0.00  0.00    +0.061 C 
ENDBRANCH  14  16
ENDBRANCH   1  14
BRANCH   1  18
ATOM     18  C5  UNL     1     118.961 153.422 141.452  0.00  0.00    -0.310 C 
BRANCH  18  19
ATOM     19  C3  UNL     1     119.556 154.860 141.531  0.00  0.00    +1.172 C 
ATOM     20  C4  UNL     1     118.623 155.872 140.834  0.00  0.00    -0.493 C 
BRANCH  19  22
ATOM     21  C1  UNL     1     121.275 154.996 143.343  0.00  0.00    +0.086 C 
ATOM     22  N1  UNL     1     119.876 155.235 142.939  0.00  0.00    -0.428 NA
ATOM     23  C2  UNL     1     118.959 154.600 143.903  0.00  0.00    +0.044 C 
ENDBRANCH  19  22
ENDBRANCH  18  19
ENDBRANCH   1  18
TORSDOF 7
ENDMDL
MODEL 2
REMARK VINA RESULT:    -6.918      1.458      4.805
REMARK INTER + INTRA:         -10.507
REMARK INTER:                 -10.137
REMARK INTRA:                  -0.370
REMARK UNBOUND:                -0.758
REMARK  Name = Output/Trash/Mthadone_ligand_intermediary.pdb
REMARK  11 active torsions:
REMARK  status: ('A' for Active; 'I' for Inactive)
REMARK    1  A    between atoms: C1_1  and  N1_2
REMARK    2  A    between atoms: N1_2  and  C2_3
REMARK    3  A    between atoms: N1_2  and  C3_4
REMARK    4  A    between atoms: C3_4  and  C4_5
REMARK    5  A    between atoms: C3_4  and  C5_6
REMARK    6  A    between atoms: C5_6  and  C6_7
REMARK    7  A    between atoms: C6_7  and  C7_8
REMARK    8  A    between atoms: C6_7  and  C13_14
REMARK    9  A    between atoms: C6_7  and  C19_20
REMARK   10  A    between atoms: C19_20  and  C20_22
REMARK   11  A    between atoms: C20_22  and  C21_23
REMARK                            x       y       z     vdW  Elec       q    Type
REMARK                         _______ _______ _______ _____ _____    ______ ____
ROOT
ATOM      1  C6  UNL     1     119.699 152.246 140.570  0.00  0.00    -0.503 C 
ENDROOT
BRANCH   1   2
ATOM      2  C7  UNL     1     118.786 151.362 139.690  0.00  0.00    +0.415 A 
ATOM      3  C8  UNL     1     119.313 150.718 138.546  0.00  0.00    -0.280 A 
ATOM      4  C9  UNL     1     118.488 149.981 137.692  0.00  0.00    +0.139 A 
ATOM      5  C10 UNL     1     117.119 149.896 137.941  0.00  0.00    -0.124 A 
ATOM      6  C11 UNL     1     116.568 150.562 139.035  0.00  0.00    +0.107 A 
ATOM      7  C12 UNL     1     117.387 151.302 139.893  0.00  0.00    -0.181 A 
ENDBRANCH   1   2
BRANCH   1   8
ATOM      8  C13 UNL     1     120.751 153.037 139.752  0.00  0.00    +0.388 A 
ATOM      9  C14 UNL     1     122.129 152.920 140.063  0.00  0.00    -0.270 A 
ATOM     10  C15 UNL     1     123.103 153.562 139.294  0.00  0.00    +0.133 A 
ATOM     11  C16 UNL     1     122.734 154.309 138.179  0.00  0.00    -0.113 A 
ATOM     12  C17 UNL     1     121.390 154.405 137.821  0.00  0.00    +0.087 A 
ATOM     13  C18 UNL     1     120.410 153.764 138.586  0.00  0.00    -0.188 A 
ENDBRANCH   1   8
BRANCH   1  14
ATOM     14  C19 UNL     1     118.868 153.319 141.300  0.00  0.00    +1.167 C 
ATOM     15  O1  UNL     1     117.685 153.114 141.543  0.00  0.00    -0.568 OA
BRANCH  14  16
ATOM     16  C20 UNL     1     119.468 154.619 141.790  0.00  0.00    -0.341 C 
ATOM     17  C21 UNL     1     118.743 155.823 141.195  0.00  0.00    +0.061 C 
ENDBRANCH  14  16
ENDBRANCH   1  14
BRANCH   1  18
ATOM     18  C5  UNL     1     120.339 151.288 141.644  0.00  0.00    -0.310 C 
BRANCH  18  19
ATOM     19  C3  UNL     1     119.651 151.269 143.042  0.00  0.00    +1.172 C 
ATOM     20  C4  UNL     1     118.730 150.038 143.176  0.00  0.00    -0.493 C 
BRANCH  19  22
ATOM     21  C1  UNL     1     120.717 150.199 145.036  0.00  0.00    +0.086 C 
ATOM     22  N1  UNL     1     120.656 151.370 144.140  0.00  0.00    -0.428 NA
ATOM     23  C2  UNL     1     120.489 152.601 144.932  0.00  0.00    +0.044 C 
ENDBRANCH  19  22
ENDBRANCH  18  19
ENDBRANCH   1  18
TORSDOF 7
ENDMDL
MODEL 3
REMARK VINA RESULT:    -6.718      1.493      4.308
REMARK INTER + INTRA:         -10.225
REMARK INTER:                  -9.428
REMARK INTRA:                  -0.798
REMARK UNBOUND:                -0.758
REMARK  Name = Output/Trash/Mthadone_ligand_intermediary.pdb
REMARK  11 active torsions:
REMARK  status: ('A' for Active; 'I' for Inactive)
REMARK    1  A    between atoms: C1_1  and  N1_2
REMARK    2  A    between atoms: N1_2  and  C2_3
REMARK    3  A    between atoms: N1_2  and  C3_4
REMARK    4  A    between atoms: C3_4  and  C4_5
REMARK    5  A    between atoms: C3_4  and  C5_6
REMARK    6  A    between atoms: C5_6  and  C6_7
REMARK    7  A    between atoms: C6_7  and  C7_8
REMARK    8  A    between atoms: C6_7  and  C13_14
REMARK    9  A    between atoms: C6_7  and  C19_20
REMARK   10  A    between atoms: C19_20  and  C20_22
REMARK   11  A    between atoms: C20_22  and  C21_23
REMARK                            x       y       z     vdW  Elec       q    Type
REMARK                         _______ _______ _______ _____ _____    ______ ____
ROOT
ATOM      1  C6  UNL     1     118.945 151.903 140.719  0.00  0.00    -0.503 C 
ENDROOT
BRANCH   1   2
ATOM      2  C7  UNL     1     119.358 151.201 142.034  0.00  0.00    +0.415 A 
ATOM      3  C8  UNL     1     118.462 150.314 142.674  0.00  0.00    -0.280 A 
ATOM      4  C9  UNL     1     118.783 149.732 143.903  0.00  0.00    +0.139 A 
ATOM      5  C10 UNL     1     119.986 150.045 144.535  0.00  0.00    -0.124 A 
ATOM      6  C11 UNL     1     120.863 150.955 143.946  0.00  0.00    +0.107 A 
ATOM      7  C12 UNL     1     120.549 151.541 142.717  0.00  0.00    -0.181 A 
ENDBRANCH   1   2
BRANCH   1   8
ATOM      8  C13 UNL     1     120.146 152.201 139.785  0.00  0.00    +0.388 A 
ATOM      9  C14 UNL     1     119.948 152.915 138.578  0.00  0.00    -0.270 A 
ATOM     10  C15 UNL     1     121.024 153.262 137.756  0.00  0.00    +0.133 A 
ATOM     11  C16 UNL     1     122.324 152.934 138.130  0.00  0.00    -0.113 A 
ATOM     12  C17 UNL     1     122.554 152.271 139.334  0.00  0.00    +0.087 A 
ATOM     13  C18 UNL     1     121.483 151.922 140.162  0.00  0.00    -0.188 A 
ENDBRANCH   1   8
BRANCH   1  14
ATOM     14  C19 UNL     1     118.011 150.995 139.895  0.00  0.00    +1.167 C 
ATOM     15  O1  UNL     1     116.809 151.228 139.859  0.00  0.00    -0.568 OA
BRANCH  14  16
ATOM     16  C20 UNL     1     118.524 149.839 139.065  0.00  0.00    -0.341 C 
ATOM     17  C21 UNL     1     117.705 149.668 137.789  0.00  0.00    +0.061 C 
ENDBRANCH  14  16
ENDBRANCH   1  14
BRANCH   1  18
ATOM     18  C5  UNL     1     118.150 153.196 141.140  0.00  0.00    -0.310 C 
BRANCH  18  19
ATOM     19  C3  UNL     1     119.013 154.423 141.564  0.00  0.00    +1.172 C 
ATOM     20  C4  UNL     1     118.817 155.591 140.575  0.00  0.00    -0.493 C 
BRANCH  19  22
ATOM     21  C1  UNL     1     119.949 154.917 143.830  0.00  0.00    +0.086 C 
ATOM     22  N1  UNL     1     118.748 154.806 142.981  0.00  0.00    -0.428 NA
ATOM     23  C2  UNL     1     117.762 153.916 143.619  0.00  0.00    +0.044 C 
ENDBRANCH  19  22
ENDBRANCH  18  19
ENDBRANCH   1  18
TORSDOF 7
ENDMDL
MODEL 4
REMARK VINA RESULT:    -6.683      1.798      4.554
REMARK INTER + INTRA:         -10.176
REMARK INTER:                  -9.175
REMARK INTRA:                  -1.002
REMARK UNBOUND:                -0.758
REMARK  Name = Output/Trash/Mthadone_ligand_intermediary.pdb
REMARK  11 active torsions:
REMARK  status: ('A' for Active; 'I' for Inactive)
REMARK    1  A    between atoms: C1_1  and  N1_2
REMARK    2  A    between atoms: N1_2  and  C2_3
REMARK    3  A    between atoms: N1_2  and  C3_4
REMARK    4  A    between atoms: C3_4  and  C4_5
REMARK    5  A    between atoms: C3_4  and  C5_6
REMARK    6  A    between atoms: C5_6  and  C6_7
REMARK    7  A    between atoms: C6_7  and  C7_8
REMARK    8  A    between atoms: C6_7  and  C13_14
REMARK    9  A    between atoms: C6_7  and  C19_20
REMARK   10  A    between atoms: C19_20  and  C20_22
REMARK   11  A    between atoms: C20_22  and  C21_23
REMARK                            x       y       z     vdW  Elec       q    Type
REMARK                         _______ _______ _______ _____ _____    ______ ____
ROOT
ATOM      1  C6  UNL     1     119.479 152.103 141.252  0.00  0.00    -0.503 C 
ENDROOT
BRANCH   1   2
ATOM      2  C7  UNL     1     119.536 151.278 142.559  0.00  0.00    +0.415 A 
ATOM      3  C8  UNL     1     120.633 151.423 143.441  0.00  0.00    -0.280 A 
ATOM      4  C9  UNL     1     120.744 150.629 144.585  0.00  0.00    +0.139 A 
ATOM      5  C10 UNL     1     119.785 149.654 144.858  0.00  0.00    -0.124 A 
ATOM      6  C11 UNL     1     118.722 149.459 143.979  0.00  0.00    +0.107 A 
ATOM      7  C12 UNL     1     118.604 150.249 142.831  0.00  0.00    -0.181 A 
ENDBRANCH   1   2
BRANCH   1   8
ATOM      8  C13 UNL     1     118.695 151.393 140.119  0.00  0.00    +0.388 A 
ATOM      9  C14 UNL     1     119.377 150.565 139.193  0.00  0.00    -0.270 A 
ATOM     10  C15 UNL     1     118.686 149.854 138.210  0.00  0.00    +0.133 A 
ATOM     11  C16 UNL     1     117.297 149.925 138.141  0.00  0.00    -0.113 A 
ATOM     12  C17 UNL     1     116.595 150.696 139.066  0.00  0.00    +0.087 A 
ATOM     13  C18 UNL     1     117.281 151.409 140.054  0.00  0.00    -0.188 A 
ENDBRANCH   1   8
BRANCH   1  14
ATOM     14  C19 UNL     1     118.732 153.430 141.487  0.00  0.00    +1.167 C 
ATOM     15  O1  UNL     1     118.640 154.248 140.581  0.00  0.00    -0.568 OA
BRANCH  14  16
ATOM     16  C20 UNL     1     118.042 153.755 142.794  0.00  0.00    -0.341 C 
ATOM     17  C21 UNL     1     118.911 154.653 143.671  0.00  0.00    +0.061 C 
ENDBRANCH  14  16
ENDBRANCH   1  14
BRANCH   1  18
ATOM     18  C5  UNL     1     120.972 152.425 140.869  0.00  0.00    -0.310 C 
BRANCH  18  19
ATOM     19  C3  UNL     1     121.224 153.811 140.203  0.00  0.00    +1.172 C 
ATOM     20  C4  UNL     1     122.126 154.686 141.098  0.00  0.00    -0.493 C 
BRANCH  19  22
ATOM     21  C1  UNL     1     120.723 153.644 137.758  0.00  0.00    +0.086 C 
ATOM     22  N1  UNL     1     121.751 153.656 138.816  0.00  0.00    -0.428 NA
ATOM     23  C2  UNL     1     122.622 152.474 138.684  0.00  0.00    +0.044 C 
ENDBRANCH  19  22
ENDBRANCH  18  19
ENDBRANCH   1  18
TORSDOF 7
ENDMDL
MODEL 5
REMARK VINA RESULT:    -6.539      1.812      5.035
REMARK INTER + INTRA:          -9.972
REMARK INTER:                  -9.314
REMARK INTRA:                  -0.658
REMARK UNBOUND:                -0.758
REMARK  Name = Output/Trash/Mthadone_ligand_intermediary.pdb
REMARK  11 active torsions:
REMARK  status: ('A' for Active; 'I' for Inactive)
REMARK    1  A    between atoms: C1_1  and  N1_2
REMARK    2  A    between atoms: N1_2  and  C2_3
REMARK    3  A    between atoms: N1_2  and  C3_4
REMARK    4  A    between atoms: C3_4  and  C4_5
REMARK    5  A    between atoms: C3_4  and  C5_6
REMARK    6  A    between atoms: C5_6  and  C6_7
REMARK    7  A    between atoms: C6_7  and  C7_8
REMARK    8  A    between atoms: C6_7  and  C13_14
REMARK    9  A    between atoms: C6_7  and  C19_20
REMARK   10  A    between atoms: C19_20  and  C20_22
REMARK   11  A    between atoms: C20_22  and  C21_23
REMARK                            x       y       z     vdW  Elec       q    Type
REMARK                         _______ _______ _______ _____ _____    ______ ____
ROOT
ATOM      1  C6  UNL     1     120.500 153.976 141.187  0.00  0.00    -0.503 C 
ENDROOT
BRANCH   1   2
ATOM      2  C7  UNL     1     119.626 152.818 140.651  0.00  0.00    +0.415 A 
ATOM      3  C8  UNL     1     118.253 152.753 140.988  0.00  0.00    -0.280 A 
ATOM      4  C9  UNL     1     117.464 151.673 140.581  0.00  0.00    +0.139 A 
ATOM      5  C10 UNL     1     118.031 150.623 139.860  0.00  0.00    -0.124 A 
ATOM      6  C11 UNL     1     119.392 150.642 139.558  0.00  0.00    +0.107 A 
ATOM      7  C12 UNL     1     120.187 151.718 139.962  0.00  0.00    -0.181 A 
ENDBRANCH   1   2
BRANCH   1   8
ATOM      8  C13 UNL     1     121.678 154.334 140.245  0.00  0.00    +0.388 A 
ATOM      9  C14 UNL     1     121.513 154.257 138.840  0.00  0.00    -0.270 A 
ATOM     10  C15 UNL     1     122.533 154.647 137.969  0.00  0.00    +0.133 A 
ATOM     11  C16 UNL     1     123.729 155.152 138.472  0.00  0.00    -0.113 A 
ATOM     12  C17 UNL     1     123.903 155.282 139.849  0.00  0.00    +0.087 A 
ATOM     13  C18 UNL     1     122.886 154.895 140.727  0.00  0.00    -0.188 A 
ENDBRANCH   1   8
BRANCH   1  14
ATOM     14  C19 UNL     1     119.668 155.269 141.302  0.00  0.00    +1.167 C 
ATOM     15  O1  UNL     1     119.748 155.958 142.310  0.00  0.00    -0.568 OA
BRANCH  14  16
ATOM     16  C20 UNL     1     118.783 155.768 140.181  0.00  0.00    -0.341 C 
ATOM     17  C21 UNL     1     118.224 157.154 140.493  0.00  0.00    +0.061 C 
ENDBRANCH  14  16
ENDBRANCH   1  14
BRANCH   1  18
ATOM     18  C5  UNL     1     120.965 153.546 142.628  0.00  0.00    -0.310 C 
BRANCH  18  19
ATOM     19  C3  UNL     1     120.015 152.577 143.395  0.00  0.00    +1.172 C 
ATOM     20  C4  UNL     1     120.699 151.212 143.621  0.00  0.00    -0.493 C 
BRANCH  19  22
ATOM     21  C1  UNL     1     118.186 153.827 144.555  0.00  0.00    +0.086 C 
ATOM     22  N1  UNL     1     119.515 153.196 144.656  0.00  0.00    -0.428 NA
ATOM     23  C2  UNL     1     120.483 154.151 145.225  0.00  0.00    +0.044 C 
ENDBRANCH  19  22
ENDBRANCH  18  19
ENDBRANCH   1  18
TORSDOF 7
ENDMDL
MODEL 6
REMARK VINA RESULT:    -6.275      1.684      4.851
REMARK INTER + INTRA:          -9.601
REMARK INTER:                  -8.707
REMARK INTRA:                  -0.894
REMARK UNBOUND:                -0.758
REMARK  Name = Output/Trash/Mthadone_ligand_intermediary.pdb
REMARK  11 active torsions:
REMARK  status: ('A' for Active; 'I' for Inactive)
REMARK    1  A    between atoms: C1_1  and  N1_2
REMARK    2  A    between atoms: N1_2  and  C2_3
REMARK    3  A    between atoms: N1_2  and  C3_4
REMARK    4  A    between atoms: C3_4  and  C4_5
REMARK    5  A    between atoms: C3_4  and  C5_6
REMARK    6  A    between atoms: C5_6  and  C6_7
REMARK    7  A    between atoms: C6_7  and  C7_8
REMARK    8  A    between atoms: C6_7  and  C13_14
REMARK    9  A    between atoms: C6_7  and  C19_20
REMARK   10  A    between atoms: C19_20  and  C20_22
REMARK   11  A    between atoms: C20_22  and  C21_23
REMARK                            x       y       z     vdW  Elec       q    Type
REMARK                         _______ _______ _______ _____ _____    ______ ____
ROOT
ATOM      1  C6  UNL     1     119.945 153.113 141.375  0.00  0.00    -0.503 C 
ENDROOT
BRANCH   1   2
ATOM      2  C7  UNL     1     119.088 152.249 140.420  0.00  0.00    +0.415 A 
ATOM      3  C8  UNL     1     117.769 151.888 140.783  0.00  0.00    -0.280 A 
ATOM      4  C9  UNL     1     117.007 151.043 139.973  0.00  0.00    +0.139 A 
ATOM      5  C10 UNL     1     117.551 150.514 138.803  0.00  0.00    -0.124 A 
ATOM      6  C11 UNL     1     118.866 150.816 138.450  0.00  0.00    +0.107 A 
ATOM      7  C12 UNL     1     119.634 151.660 139.256  0.00  0.00    -0.181 A 
ENDBRANCH   1   2
BRANCH   1   8
ATOM      8  C13 UNL     1     119.492 154.594 141.425  0.00  0.00    +0.388 A 
ATOM      9  C14 UNL     1     119.963 155.447 142.454  0.00  0.00    -0.270 A 
ATOM     10  C15 UNL     1     119.631 156.804 142.479  0.00  0.00    +0.133 A 
ATOM     11  C16 UNL     1     118.848 157.353 141.467  0.00  0.00    -0.113 A 
ATOM     12  C17 UNL     1     118.407 156.548 140.417  0.00  0.00    +0.087 A 
ATOM     13  C18 UNL     1     118.737 155.189 140.385  0.00  0.00    -0.188 A 
ENDBRANCH   1   8
BRANCH   1  14
ATOM     14  C19 UNL     1     119.814 152.603 142.823  0.00  0.00    +1.167 C 
ATOM     15  O1  UNL     1     120.715 151.939 143.320  0.00  0.00    -0.568 OA
BRANCH  14  16
ATOM     16  C20 UNL     1     118.627 152.939 143.700  0.00  0.00    -0.341 C 
ATOM     17  C21 UNL     1     118.116 151.703 144.435  0.00  0.00    +0.061 C 
ENDBRANCH  14  16
ENDBRANCH   1  14
BRANCH   1  18
ATOM     18  C5  UNL     1     121.438 152.935 140.909  0.00  0.00    -0.310 C 
BRANCH  18  19
ATOM     19  C3  UNL     1     122.087 154.164 140.203  0.00  0.00    +1.172 C 
ATOM     20  C4  UNL     1     123.160 154.805 141.107  0.00  0.00    -0.493 C 
BRANCH  19  22
ATOM     21  C1  UNL     1     121.715 154.158 137.730  0.00  0.00    +0.086 C 
ATOM     22  N1  UNL     1     122.603 153.799 138.852  0.00  0.00    -0.428 NA
ATOM     23  C2  UNL     1     122.971 152.375 138.766  0.00  0.00    +0.044 C 
ENDBRANCH  19  22
ENDBRANCH  18  19
ENDBRANCH   1  18
TORSDOF 7
ENDMDL
MODEL 7
REMARK VINA RESULT:    -6.223      2.093      4.481
REMARK INTER + INTRA:          -9.528
REMARK INTER:                  -8.423
REMARK INTRA:                  -1.105
REMARK UNBOUND:                -0.758
REMARK  Name = Output/Trash/Mthadone_ligand_intermediary.pdb
REMARK  11 active torsions:
REMARK  status: ('A' for Active; 'I' for Inactive)
REMARK    1  A    between atoms: C1_1  and  N1_2
REMARK    2  A    between atoms: N1_2  and  C2_3
REMARK    3  A    between atoms: N1_2  and  C3_4
REMARK    4  A    between atoms: C3_4  and  C4_5
REMARK    5  A    between atoms: C3_4  and  C5_6
REMARK    6  A    between atoms: C5_6  and  C6_7
REMARK    7  A    between atoms: C6_7  and  C7_8
REMARK    8  A    between atoms: C6_7  and  C13_14
REMARK    9  A    between atoms: C6_7  and  C19_20
REMARK   10  A    between atoms: C19_20  and  C20_22
REMARK   11  A    between atoms: C20_22  and  C21_23
REMARK                            x       y       z     vdW  Elec       q    Type
REMARK                         _______ _______ _______ _____ _____    ______ ____
ROOT
ATOM      1  C6  UNL     1     119.867 154.002 141.523  0.00  0.00    -0.503 C 
ENDROOT
BRANCH   1   2
ATOM      2  C7  UNL     1     120.629 153.646 140.226  0.00  0.00    +0.415 A 
ATOM      3  C8  UNL     1     121.725 152.753 140.271  0.00  0.00    -0.280 A 
ATOM      4  C9  UNL     1     122.477 152.480 139.126  0.00  0.00    +0.139 A 
ATOM      5  C10 UNL     1     122.175 153.114 137.921  0.00  0.00    -0.124 A 
ATOM      6  C11 UNL     1     121.131 154.036 137.863  0.00  0.00    +0.107 A 
ATOM      7  C12 UNL     1     120.375 154.314 139.006  0.00  0.00    -0.181 A 
ENDBRANCH   1   2
BRANCH   1   8
ATOM      8  C13 UNL     1     119.466 155.498 141.602  0.00  0.00    +0.388 A 
ATOM      9  C14 UNL     1     120.066 156.345 142.567  0.00  0.00    -0.270 A 
ATOM     10  C15 UNL     1     119.780 157.711 142.610  0.00  0.00    +0.133 A 
ATOM     11  C16 UNL     1     118.914 158.275 141.676  0.00  0.00    -0.113 A 
ATOM     12  C17 UNL     1     118.344 157.475 140.687  0.00  0.00    +0.087 A 
ATOM     13  C18 UNL     1     118.628 156.107 140.637  0.00  0.00    -0.188 A 
ENDBRANCH   1   8
BRANCH   1  14
ATOM     14  C19 UNL     1     118.538 153.226 141.596  0.00  0.00    +1.167 C 
ATOM     15  O1  UNL     1     117.636 153.626 142.322  0.00  0.00    -0.568 OA
BRANCH  14  16
ATOM     16  C20 UNL     1     118.265 151.999 140.754  0.00  0.00    -0.341 C 
ATOM     17  C21 UNL     1     117.816 150.823 141.618  0.00  0.00    +0.061 C 
ENDBRANCH  14  16
ENDBRANCH   1  14
BRANCH   1  18
ATOM     18  C5  UNL     1     120.787 153.542 142.716  0.00  0.00    -0.310 C 
BRANCH  18  19
ATOM     19  C3  UNL     1     120.097 152.687 143.822  0.00  0.00    +1.172 C 
ATOM     20  C4  UNL     1     120.703 151.269 143.868  0.00  0.00    -0.493 C 
BRANCH  19  22
ATOM     21  C1  UNL     1     118.982 154.263 145.413  0.00  0.00    +0.086 C 
ATOM     22  N1  UNL     1     120.134 153.382 145.142  0.00  0.00    -0.428 NA
ATOM     23  C2  UNL     1     121.392 154.124 145.341  0.00  0.00    +0.044 C 
ENDBRANCH  19  22
ENDBRANCH  18  19
ENDBRANCH   1  18
TORSDOF 7
ENDMDL
MODEL 8
REMARK VINA RESULT:    -6.065      2.586      5.465
REMARK INTER + INTRA:          -9.305
REMARK INTER:                  -8.359
REMARK INTRA:                  -0.946
REMARK UNBOUND:                -0.758
REMARK  Name = Output/Trash/Mthadone_ligand_intermediary.pdb
REMARK  11 active torsions:
REMARK  status: ('A' for Active; 'I' for Inactive)
REMARK    1  A    between atoms: C1_1  and  N1_2
REMARK    2  A    between atoms: N1_2  and  C2_3
REMARK    3  A    between atoms: N1_2  and  C3_4
REMARK    4  A    between atoms: C3_4  and  C4_5
REMARK    5  A    between atoms: C3_4  and  C5_6
REMARK    6  A    between atoms: C5_6  and  C6_7
REMARK    7  A    between atoms: C6_7  and  C7_8
REMARK    8  A    between atoms: C6_7  and  C13_14
REMARK    9  A    between atoms: C6_7  and  C19_20
REMARK   10  A    between atoms: C19_20  and  C20_22
REMARK   11  A    between atoms: C20_22  and  C21_23
REMARK                            x       y       z     vdW  Elec       q    Type
REMARK                         _______ _______ _______ _____ _____    ______ ____
ROOT
ATOM      1  C6  UNL     1     119.359 153.028 143.106  0.00  0.00    -0.503 C 
ENDROOT
BRANCH   1   2
ATOM      2  C7  UNL     1     118.276 153.021 144.211  0.00  0.00    +0.415 A 
ATOM      3  C8  UNL     1     118.153 154.125 145.087  0.00  0.00    -0.280 A 
ATOM      4  C9  UNL     1     117.236 154.106 146.141  0.00  0.00    +0.139 A 
ATOM      5  C10 UNL     1     116.448 152.977 146.365  0.00  0.00    -0.124 A 
ATOM      6  C11 UNL     1     116.587 151.859 145.545  0.00  0.00    +0.107 A 
ATOM      7  C12 UNL     1     117.503 151.871 144.488  0.00  0.00    -0.181 A 
ENDBRANCH   1   2
BRANCH   1   8
ATOM      8  C13 UNL     1     118.979 152.163 141.877  0.00  0.00    +0.388 A 
ATOM      9  C14 UNL     1     119.919 151.255 141.328  0.00  0.00    -0.270 A 
ATOM     10  C15 UNL     1     119.577 150.410 140.270  0.00  0.00    +0.133 A 
ATOM     11  C16 UNL     1     118.285 150.424 139.752  0.00  0.00    -0.113 A 
ATOM     12  C17 UNL     1     117.326 151.274 140.301  0.00  0.00    +0.087 A 
ATOM     13  C18 UNL     1     117.661 152.121 141.362  0.00  0.00    -0.188 A 
ENDBRANCH   1   8
BRANCH   1  14
ATOM     14  C19 UNL     1     119.551 154.453 142.551  0.00  0.00    +1.167 C 
ATOM     15  O1  UNL     1     120.574 155.074 142.807  0.00  0.00    -0.568 OA
BRANCH  14  16
ATOM     16  C20 UNL     1     118.541 155.113 141.637  0.00  0.00    -0.341 C 
ATOM     17  C21 UNL     1     119.155 155.437 140.278  0.00  0.00    +0.061 C 
ENDBRANCH  14  16
ENDBRANCH   1  14
BRANCH   1  18
ATOM     18  C5  UNL     1     120.698 152.571 143.798  0.00  0.00    -0.310 C 
BRANCH  18  19
ATOM     19  C3  UNL     1     120.543 151.755 145.117  0.00  0.00    +1.172 C 
ATOM     20  C4  UNL     1     120.872 150.267 144.875  0.00  0.00    -0.493 C 
BRANCH  19  22
ATOM     21  C1  UNL     1     121.816 153.732 145.968  0.00  0.00    +0.086 C 
ATOM     22  N1  UNL     1     121.344 152.358 146.222  0.00  0.00    -0.428 NA
ATOM     23  C2  UNL     1     122.477 151.501 146.615  0.00  0.00    +0.044 C 
ENDBRANCH  19  22
ENDBRANCH  18  19
ENDBRANCH   1  18
TORSDOF 7
ENDMDL
MODEL 9
REMARK VINA RESULT:    -5.906      1.821      4.748
REMARK INTER + INTRA:          -9.080
REMARK INTER:                  -8.311
REMARK INTRA:                  -0.769
REMARK UNBOUND:                -0.758
REMARK  Name = Output/Trash/Mthadone_ligand_intermediary.pdb
REMARK  11 active torsions:
REMARK  status: ('A' for Active; 'I' for Inactive)
REMARK    1  A    between atoms: C1_1  and  N1_2
REMARK    2  A    between atoms: N1_2  and  C2_3
REMARK    3  A    between atoms: N1_2  and  C3_4
REMARK    4  A    between atoms: C3_4  and  C4_5
REMARK    5  A    between atoms: C3_4  and  C5_6
REMARK    6  A    between atoms: C5_6  and  C6_7
REMARK    7  A    between atoms: C6_7  and  C7_8
REMARK    8  A    between atoms: C6_7  and  C13_14
REMARK    9  A    between atoms: C6_7  and  C19_20
REMARK   10  A    between atoms: C19_20  and  C20_22
REMARK   11  A    between atoms: C20_22  and  C21_23
REMARK                            x       y       z     vdW  Elec       q    Type
REMARK                         _______ _______ _______ _____ _____    ______ ____
ROOT
ATOM      1  C6  UNL     1     120.035 153.111 141.440  0.00  0.00    -0.503 C 
ENDROOT
BRANCH   1   2
ATOM      2  C7  UNL     1     119.700 154.620 141.450  0.00  0.00    +0.415 A 
ATOM      3  C8  UNL     1     120.134 155.435 142.522  0.00  0.00    -0.280 A 
ATOM      4  C9  UNL     1     119.774 156.783 142.591  0.00  0.00    +0.139 A 
ATOM      5  C10 UNL     1     118.949 157.340 141.615  0.00  0.00    -0.124 A 
ATOM      6  C11 UNL     1     118.468 156.545 140.576  0.00  0.00    +0.107 A 
ATOM      7  C12 UNL     1     118.824 155.195 140.500  0.00  0.00    -0.181 A 
ENDBRANCH   1   2
BRANCH   1   8
ATOM      8  C13 UNL     1     119.811 152.430 142.815  0.00  0.00    +0.388 A 
ATOM      9  C14 UNL     1     118.700 152.793 143.616  0.00  0.00    -0.270 A 
ATOM     10  C15 UNL     1     118.433 152.142 144.823  0.00  0.00    +0.133 A 
ATOM     11  C16 UNL     1     119.245 151.094 145.248  0.00  0.00    -0.113 A 
ATOM     12  C17 UNL     1     120.319 150.684 144.458  0.00  0.00    +0.087 A 
ATOM     13  C18 UNL     1     120.591 151.330 143.249  0.00  0.00    -0.188 A 
ENDBRANCH   1   8
BRANCH   1  14
ATOM     14  C19 UNL     1     119.107 152.360 140.464  0.00  0.00    +1.167 C 
ATOM     15  O1  UNL     1     119.515 152.049 139.353  0.00  0.00    -0.568 OA
BRANCH  14  16
ATOM     16  C20 UNL     1     117.706 151.930 140.842  0.00  0.00    -0.341 C 
ATOM     17  C21 UNL     1     117.127 150.966 139.810  0.00  0.00    +0.061 C 
ENDBRANCH  14  16
ENDBRANCH   1  14
BRANCH   1  18
ATOM     18  C5  UNL     1     121.516 152.991 140.921  0.00  0.00    -0.310 C 
BRANCH  18  19
ATOM     19  C3  UNL     1     122.067 154.218 140.133  0.00  0.00    +1.172 C 
ATOM     20  C4  UNL     1     123.237 154.872 140.897  0.00  0.00    -0.493 C 
BRANCH  19  22
ATOM     21  C1  UNL     1     121.431 154.248 137.715  0.00  0.00    +0.086 C 
ATOM     22  N1  UNL     1     122.420 153.845 138.733  0.00  0.00    -0.428 NA
ATOM     23  C2  UNL     1     122.720 152.408 138.601  0.00  0.00    +0.044 C 
ENDBRANCH  19  22
ENDBRANCH  18  19
ENDBRANCH   1  18
TORSDOF 7
ENDMDL
