MODEL 1
REMARK VINA RESULT:    -7.731      0.000      0.000
REMARK INTER + INTRA:          -8.183
REMARK INTER:                  -8.183
REMARK INTRA:                   0.000
REMARK UNBOUND:                 0.000
REMARK  Name = Output/Trash/MorphineMOL_ligand_intermediary.pdb
REMARK  3 active torsions:
REMARK  status: ('A' for Active; 'I' for Inactive)
REMARK    1  A    between atoms: O2_2  and  C10_14
REMARK    2  A    between atoms: O3_3  and  C16_20
REMARK    3  A    between atoms: N1_4  and  C14_18
REMARK                            x       y       z     vdW  Elec       q    Type
REMARK                         _______ _______ _______ _____ _____    ______ ____
ROOT
ATOM      1  O1  UNL     1     120.556 151.753 138.220  0.00  0.00    -0.449 OA
ATOM      2  N1  UNL     1     119.768 152.204 143.393  0.00  0.00    -0.642 NA
ATOM      3  C1  UNL     1     120.400 152.236 140.555  0.00  0.00    +0.650 C 
ATOM      4  C2  UNL     1     119.932 153.496 141.317  0.00  0.00    -0.616 C 
ATOM      5  C3  UNL     1     118.973 153.027 142.444  0.00  0.00    +0.961 C 
ATOM      6  C4  UNL     1     121.219 152.515 139.239  0.00  0.00    +0.076 C 
ATOM      7  C5  UNL     1     121.158 151.301 141.528  0.00  0.00    -0.509 C 
ATOM      8  C6  UNL     1     119.197 151.547 140.011  0.00  0.00    -0.625 A 
ATOM      9  C7  UNL     1     117.701 152.283 141.890  0.00  0.00    -0.649 C 
ATOM     10  C8  UNL     1     120.323 150.976 142.783  0.00  0.00    +0.547 C 
ATOM     11  C9  UNL     1     117.946 151.495 140.622  0.00  0.00    +0.652 A 
ATOM     12  C10 UNL     1     121.249 154.020 138.861  0.00  0.00    +0.769 C 
ATOM     13  C11 UNL     1     119.326 154.490 140.353  0.00  0.00    +0.326 C 
ATOM     14  C12 UNL     1     119.357 151.259 138.692  0.00  0.00    +0.450 A 
ATOM     15  C13 UNL     1     119.934 154.708 139.177  0.00  0.00    -0.545 C 
ATOM     16  C14 UNL     1     119.063 151.910 144.651  0.00  0.00    +0.056 C 
ATOM     17  C15 UNL     1     116.892 150.891 139.908  0.00  0.00    -0.059 A 
ATOM     18  C16 UNL     1     118.339 150.660 137.951  0.00  0.00    +0.910 A 
ATOM     19  C17 UNL     1     117.100 150.438 138.587  0.00  0.00    -0.556 A 
ENDROOT
BRANCH  12  20
ATOM     20  O2  UNL     1     121.561 154.164 137.501  0.00  0.00    -1.002 OA
ATOM     21  H1  UNL     1     120.886 154.782 137.116  0.00  0.00    +0.646 HD
ENDBRANCH  12  20
BRANCH  18  22
ATOM     22  O3  UNL     1     118.540 150.327 136.614  0.00  0.00    -1.066 OA
ATOM     23  H2  UNL     1     117.800 149.915 136.057  0.00  0.00    +0.673 HD
ENDBRANCH  18  22
TORSDOF 2
ENDMDL
MODEL 2
REMARK VINA RESULT:    -6.961      2.411      4.627
REMARK INTER + INTRA:          -7.368
REMARK INTER:                  -7.368
REMARK INTRA:                   0.000
REMARK UNBOUND:                 0.000
REMARK  Name = Output/Trash/MorphineMOL_ligand_intermediary.pdb
REMARK  3 active torsions:
REMARK  status: ('A' for Active; 'I' for Inactive)
REMARK    1  A    between atoms: O2_2  and  C10_14
REMARK    2  A    between atoms: O3_3  and  C16_20
REMARK    3  A    between atoms: N1_4  and  C14_18
REMARK                            x       y       z     vdW  Elec       q    Type
REMARK                         _______ _______ _______ _____ _____    ______ ____
ROOT
ATOM      1  O1  UNL     1     121.057 150.585 142.021  0.00  0.00    -0.449 OA
ATOM      2  N1  UNL     1     119.218 155.376 140.902  0.00  0.00    -0.642 NA
ATOM      3  C1  UNL     1     120.132 152.632 141.206  0.00  0.00    +0.650 C 
ATOM      4  C2  UNL     1     118.728 152.986 140.669  0.00  0.00    -0.616 C 
ATOM      5  C3  UNL     1     118.288 154.308 141.354  0.00  0.00    +0.961 C 
ATOM      6  C4  UNL     1     120.670 151.212 140.789  0.00  0.00    +0.076 C 
ATOM      7  C5  UNL     1     121.122 153.763 140.838  0.00  0.00    -0.509 C 
ATOM      8  C6  UNL     1     120.042 152.489 142.686  0.00  0.00    -0.625 A 
ATOM      9  C7  UNL     1     118.201 154.181 142.920  0.00  0.00    -0.649 C 
ATOM     10  C8  UNL     1     120.621 155.144 141.310  0.00  0.00    +0.547 C 
ATOM     11  C9  UNL     1     119.205 153.224 143.524  0.00  0.00    +0.652 A 
ATOM     12  C10 UNL     1     119.601 150.359 140.056  0.00  0.00    +0.769 C 
ATOM     13  C11 UNL     1     117.782 151.826 140.883  0.00  0.00    +0.326 C 
ATOM     14  C12 UNL     1     120.620 151.329 143.098  0.00  0.00    +0.450 A 
ATOM     15  C13 UNL     1     118.213 150.582 140.625  0.00  0.00    -0.545 C 
ATOM     16  C14 UNL     1     118.772 156.734 141.254  0.00  0.00    +0.056 C 
ATOM     17  C15 UNL     1     119.172 152.876 144.888  0.00  0.00    -0.059 A 
ATOM     18  C16 UNL     1     120.610 150.949 144.439  0.00  0.00    +0.910 A 
ATOM     19  C17 UNL     1     119.907 151.762 145.352  0.00  0.00    -0.556 A 
ENDROOT
BRANCH  12  20
ATOM     20  O2  UNL     1     119.946 149.001 140.125  0.00  0.00    -1.002 OA
ATOM     21  H1  UNL     1     119.299 148.512 139.551  0.00  0.00    +0.646 HD
ENDBRANCH  12  20
BRANCH  18  22
ATOM     22  O3  UNL     1     121.250 149.783 144.849  0.00  0.00    -1.066 OA
ATOM     23  H2  UNL     1     121.248 149.494 145.820  0.00  0.00    +0.673 HD
ENDBRANCH  18  22
TORSDOF 2
ENDMDL
MODEL 3
REMARK VINA RESULT:    -6.841      2.206      4.102
REMARK INTER + INTRA:          -7.241
REMARK INTER:                  -7.241
REMARK INTRA:                   0.000
REMARK UNBOUND:                 0.000
REMARK  Name = Output/Trash/MorphineMOL_ligand_intermediary.pdb
REMARK  3 active torsions:
REMARK  status: ('A' for Active; 'I' for Inactive)
REMARK    1  A    between atoms: O2_2  and  C10_14
REMARK    2  A    between atoms: O3_3  and  C16_20
REMARK    3  A    between atoms: N1_4  and  C14_18
REMARK                            x       y       z     vdW  Elec       q    Type
REMARK                         _______ _______ _______ _____ _____    ______ ____
ROOT
ATOM      1  O1  UNL     1     117.738 150.556 141.166  0.00  0.00    -0.449 OA
ATOM      2  N1  UNL     1     119.363 155.356 142.545  0.00  0.00    -0.642 NA
ATOM      3  C1  UNL     1     118.487 152.617 142.116  0.00  0.00    +0.650 C 
ATOM      4  C2  UNL     1     119.730 152.969 142.963  0.00  0.00    -0.616 C 
ATOM      5  C3  UNL     1     120.351 154.260 142.362  0.00  0.00    +0.961 C 
ATOM      6  C4  UNL     1     117.833 151.221 142.435  0.00  0.00    +0.076 C 
ATOM      7  C5  UNL     1     117.464 153.775 142.201  0.00  0.00    -0.509 C 
ATOM      8  C6  UNL     1     118.925 152.421 140.705  0.00  0.00    -0.625 A 
ATOM      9  C7  UNL     1     120.806 154.077 140.867  0.00  0.00    -0.649 C 
ATOM     10  C8  UNL     1     118.093 155.130 141.821  0.00  0.00    +0.547 C 
ATOM     11  C9  UNL     1     119.954 153.114 140.071  0.00  0.00    +0.652 A 
ATOM     12  C10 UNL     1     118.677 150.379 143.429  0.00  0.00    +0.769 C 
ATOM     13  C11 UNL     1     120.674 151.789 143.016  0.00  0.00    +0.326 C 
ATOM     14  C12 UNL     1     118.436 151.255 140.203  0.00  0.00    +0.450 A 
ATOM     15  C13 UNL     1     120.166 150.561 143.202  0.00  0.00    -0.545 C 
ATOM     16  C14 UNL     1     119.911 156.694 142.269  0.00  0.00    +0.056 C 
ATOM     17  C15 UNL     1     120.303 152.718 138.765  0.00  0.00    -0.059 A 
ATOM     18  C16 UNL     1     118.757 150.829 138.916  0.00  0.00    +0.910 A 
ATOM     19  C17 UNL     1     119.676 151.599 138.173  0.00  0.00    -0.556 A 
ENDROOT
BRANCH  12  20
ATOM     20  O2  UNL     1     118.329 149.024 143.321  0.00  0.00    -1.002 OA
ATOM     21  H1  UNL     1     118.648 148.716 142.432  0.00  0.00    +0.646 HD
ENDBRANCH  12  20
BRANCH  18  22
ATOM     22  O3  UNL     1     118.207 149.658 138.400  0.00  0.00    -1.066 OA
ATOM     23  H2  UNL     1     117.236 149.614 138.113  0.00  0.00    +0.673 HD
ENDBRANCH  18  22
TORSDOF 2
ENDMDL
MODEL 4
REMARK VINA RESULT:    -6.609      2.048      4.611
REMARK INTER + INTRA:          -6.995
REMARK INTER:                  -6.995
REMARK INTRA:                   0.000
REMARK UNBOUND:                 0.000
REMARK  Name = Output/Trash/MorphineMOL_ligand_intermediary.pdb
REMARK  3 active torsions:
REMARK  status: ('A' for Active; 'I' for Inactive)
REMARK    1  A    between atoms: O2_2  and  C10_14
REMARK    2  A    between atoms: O3_3  and  C16_20
REMARK    3  A    between atoms: N1_4  and  C14_18
REMARK                            x       y       z     vdW  Elec       q    Type
REMARK                         _______ _______ _______ _____ _____    ______ ____
ROOT
ATOM      1  O1  UNL     1     120.622 153.896 138.245  0.00  0.00    -0.449 OA
ATOM      2  N1  UNL     1     119.790 155.353 143.222  0.00  0.00    -0.642 NA
ATOM      3  C1  UNL     1     120.032 154.288 140.528  0.00  0.00    +0.650 C 
ATOM      4  C2  UNL     1     120.141 153.398 141.786  0.00  0.00    -0.616 C 
ATOM      5  C3  UNL     1     120.758 154.267 142.916  0.00  0.00    +0.961 C 
ATOM      6  C4  UNL     1     119.622 153.532 139.208  0.00  0.00    +0.076 C 
ATOM      7  C5  UNL     1     119.103 155.488 140.827  0.00  0.00    -0.509 C 
ATOM      8  C6  UNL     1     121.398 154.769 140.178  0.00  0.00    -0.625 A 
ATOM      9  C7  UNL     1     122.196 154.798 142.559  0.00  0.00    -0.649 C 
ATOM     10  C8  UNL     1     119.550 156.265 142.082  0.00  0.00    +0.547 C 
ATOM     11  C9  UNL     1     122.410 155.071 141.087  0.00  0.00    +0.652 A 
ATOM     12  C10 UNL     1     119.577 151.991 139.390  0.00  0.00    +0.769 C 
ATOM     13  C11 UNL     1     120.919 152.142 141.469  0.00  0.00    +0.326 C 
ATOM     14  C12 UNL     1     121.664 154.560 138.861  0.00  0.00    +0.450 A 
ATOM     15  C13 UNL     1     120.673 151.500 140.317  0.00  0.00    -0.545 C 
ATOM     16  C14 UNL     1     120.110 156.099 144.450  0.00  0.00    +0.056 C 
ATOM     17  C15 UNL     1     123.676 155.407 140.571  0.00  0.00    -0.059 A 
ATOM     18  C16 UNL     1     122.904 154.880 138.311  0.00  0.00    +0.910 A 
ATOM     19  C17 UNL     1     123.912 155.350 139.179  0.00  0.00    -0.556 A 
ENDROOT
BRANCH  12  20
ATOM     20  O2  UNL     1     119.674 151.361 138.141  0.00  0.00    -1.002 OA
ATOM     21  H1  UNL     1     120.518 150.838 138.148  0.00  0.00    +0.646 HD
ENDBRANCH  12  20
BRANCH  18  22
ATOM     22  O3  UNL     1     123.141 154.706 136.950  0.00  0.00    -1.066 OA
ATOM     23  H2  UNL     1     124.032 154.363 136.610  0.00  0.00    +0.673 HD
ENDBRANCH  18  22
TORSDOF 2
ENDMDL
MODEL 5
REMARK VINA RESULT:    -6.482      3.184      5.338
REMARK INTER + INTRA:          -6.861
REMARK INTER:                  -6.861
REMARK INTRA:                   0.000
REMARK UNBOUND:                 0.000
REMARK  Name = Output/Trash/MorphineMOL_ligand_intermediary.pdb
REMARK  3 active torsions:
REMARK  status: ('A' for Active; 'I' for Inactive)
REMARK    1  A    between atoms: O2_2  and  C10_14
REMARK    2  A    between atoms: O3_3  and  C16_20
REMARK    3  A    between atoms: N1_4  and  C14_18
REMARK                            x       y       z     vdW  Elec       q    Type
REMARK                         _______ _______ _______ _____ _____    ______ ____
ROOT
ATOM      1  O1  UNL     1     120.720 152.767 144.146  0.00  0.00    -0.449 OA
ATOM      2  N1  UNL     1     119.053 150.125 139.923  0.00  0.00    -0.642 NA
ATOM      3  C1  UNL     1     119.969 151.286 142.427  0.00  0.00    +0.650 C 
ATOM      4  C2  UNL     1     118.758 150.331 142.348  0.00  0.00    -0.616 C 
ATOM      5  C3  UNL     1     118.083 150.550 140.966  0.00  0.00    +0.961 C 
ATOM      6  C4  UNL     1     120.668 151.366 143.836  0.00  0.00    +0.076 C 
ATOM      7  C5  UNL     1     120.970 150.940 141.298  0.00  0.00    -0.509 C 
ATOM      8  C6  UNL     1     119.474 152.681 142.265  0.00  0.00    -0.625 A 
ATOM      9  C7  UNL     1     117.565 152.024 140.770  0.00  0.00    -0.649 C 
ATOM     10  C8  UNL     1     120.294 150.930 139.912  0.00  0.00    +0.547 C 
ATOM     11  C9  UNL     1     118.402 153.075 141.466  0.00  0.00    +0.652 A 
ATOM     12  C10 UNL     1     119.888 150.594 144.934  0.00  0.00    +0.769 C 
ATOM     13  C11 UNL     1     117.844 150.550 143.532  0.00  0.00    +0.326 C 
ATOM     14  C12 UNL     1     119.965 153.487 143.244  0.00  0.00    +0.450 A 
ATOM     15  C13 UNL     1     118.387 150.710 144.749  0.00  0.00    -0.545 C 
ATOM     16  C14 UNL     1     118.465 150.023 138.578  0.00  0.00    +0.056 C 
ATOM     17  C15 UNL     1     118.003 154.424 141.521  0.00  0.00    -0.059 A 
ATOM     18  C16 UNL     1     119.596 154.829 143.332  0.00  0.00    +0.910 A 
ATOM     19  C17 UNL     1     118.628 155.310 142.427  0.00  0.00    -0.556 A 
ENDROOT
BRANCH  12  20
ATOM     20  O2  UNL     1     120.261 151.065 146.203  0.00  0.00    -1.002 OA
ATOM     21  H1  UNL     1     119.422 151.194 146.719  0.00  0.00    +0.646 HD
ENDBRANCH  12  20
BRANCH  18  22
ATOM     22  O3  UNL     1     120.148 155.651 144.311  0.00  0.00    -1.066 OA
ATOM     23  H2  UNL     1     119.578 156.050 145.048  0.00  0.00    +0.673 HD
ENDBRANCH  18  22
TORSDOF 2
ENDMDL
MODEL 6
REMARK VINA RESULT:    -6.468     19.619     21.335
REMARK INTER + INTRA:          -6.846
REMARK INTER:                  -6.846
REMARK INTRA:                   0.000
REMARK UNBOUND:                 0.000
REMARK  Name = Output/Trash/MorphineMOL_ligand_intermediary.pdb
REMARK  3 active torsions:
REMARK  status: ('A' for Active; 'I' for Inactive)
REMARK    1  A    between atoms: O2_2  and  C10_14
REMARK    2  A    between atoms: O3_3  and  C16_20
REMARK    3  A    between atoms: N1_4  and  C14_18
REMARK                            x       y       z     vdW  Elec       q    Type
REMARK                         _______ _______ _______ _____ _____    ______ ____
ROOT
ATOM      1  O1  UNL     1     132.910 141.492 125.257  0.00  0.00    -0.449 OA
ATOM      2  N1  UNL     1     130.667 146.200 124.629  0.00  0.00    -0.642 NA
ATOM      3  C1  UNL     1     131.800 143.522 124.658  0.00  0.00    +0.650 C 
ATOM      4  C2  UNL     1     130.353 143.808 124.200  0.00  0.00    -0.616 C 
ATOM      5  C3  UNL     1     129.840 145.027 125.014  0.00  0.00    +0.961 C 
ATOM      6  C4  UNL     1     132.429 142.191 124.099  0.00  0.00    +0.076 C 
ATOM      7  C5  UNL     1     132.685 144.756 124.360  0.00  0.00    -0.509 C 
ATOM      8  C6  UNL     1     131.780 143.245 126.121  0.00  0.00    -0.625 A 
ATOM      9  C7  UNL     1     129.825 144.759 126.565  0.00  0.00    -0.649 C 
ATOM     10  C8  UNL     1     132.099 146.047 124.968  0.00  0.00    +0.547 C 
ATOM     11  C9  UNL     1     130.922 143.836 127.047  0.00  0.00    +0.652 A 
ATOM     12  C10 UNL     1     131.400 141.322 123.327  0.00  0.00    +0.769 C 
ATOM     13  C11 UNL     1     129.508 142.562 124.341  0.00  0.00    +0.326 C 
ATOM     14  C12 UNL     1     132.460 142.104 126.409  0.00  0.00    +0.450 A 
ATOM     15  C13 UNL     1     130.022 141.383 123.959  0.00  0.00    -0.545 C 
ATOM     16  C14 UNL     1     130.133 147.482 125.114  0.00  0.00    +0.056 C 
ATOM     17  C15 UNL     1     130.970 143.370 128.376  0.00  0.00    -0.059 A 
ATOM     18  C16 UNL     1     132.532 141.611 127.711  0.00  0.00    +0.910 A 
ATOM     19  C17 UNL     1     131.805 142.283 128.715  0.00  0.00    -0.556 A 
ENDROOT
BRANCH  12  20
ATOM     20  O2  UNL     1     131.850 139.994 123.264  0.00  0.00    -1.002 OA
ATOM     21  H1  UNL     1     131.110 139.424 123.602  0.00  0.00    +0.646 HD
ENDBRANCH  12  20
BRANCH  18  22
ATOM     22  O3  UNL     1     133.276 140.468 127.994  0.00  0.00    -1.066 OA
ATOM     23  H2  UNL     1     132.829 139.606 128.284  0.00  0.00    +0.673 HD
ENDBRANCH  18  22
TORSDOF 2
ENDMDL
MODEL 7
REMARK VINA RESULT:    -6.110      1.939      4.187
REMARK INTER + INTRA:          -6.467
REMARK INTER:                  -6.467
REMARK INTRA:                   0.000
REMARK UNBOUND:                 0.000
REMARK  Name = Output/Trash/MorphineMOL_ligand_intermediary.pdb
REMARK  3 active torsions:
REMARK  status: ('A' for Active; 'I' for Inactive)
REMARK    1  A    between atoms: O2_2  and  C10_14
REMARK    2  A    between atoms: O3_3  and  C16_20
REMARK    3  A    between atoms: N1_4  and  C14_18
REMARK                            x       y       z     vdW  Elec       q    Type
REMARK                         _______ _______ _______ _____ _____    ______ ____
ROOT
ATOM      1  O1  UNL     1     118.395 152.887 140.372  0.00  0.00    -0.449 OA
ATOM      2  N1  UNL     1     119.001 151.094 145.271  0.00  0.00    -0.642 NA
ATOM      3  C1  UNL     1     118.728 151.764 142.455  0.00  0.00    +0.650 C 
ATOM      4  C2  UNL     1     119.914 150.940 143.002  0.00  0.00    -0.616 C 
ATOM      5  C3  UNL     1     120.193 151.430 144.449  0.00  0.00    +0.961 C 
ATOM      6  C4  UNL     1     118.423 151.562 140.924  0.00  0.00    +0.076 C 
ATOM      7  C5  UNL     1     117.481 151.517 143.337  0.00  0.00    -0.509 C 
ATOM      8  C6  UNL     1     119.106 153.205 142.491  0.00  0.00    -0.625 A 
ATOM      9  C7  UNL     1     120.580 152.955 144.510  0.00  0.00    -0.649 C 
ATOM     10  C8  UNL     1     117.769 151.783 144.829  0.00  0.00    +0.547 C 
ATOM     11  C9  UNL     1     119.913 153.809 143.454  0.00  0.00    +0.652 A 
ATOM     12  C10 UNL     1     119.495 150.696 140.209  0.00  0.00    +0.769 C 
ATOM     13  C11 UNL     1     121.098 151.047 142.067  0.00  0.00    +0.326 C 
ATOM     14  C12 UNL     1     118.857 153.802 141.295  0.00  0.00    +0.450 A 
ATOM     15  C13 UNL     1     120.888 150.967 140.744  0.00  0.00    -0.545 C 
ATOM     16  C14 UNL     1     119.219 151.255 146.718  0.00  0.00    +0.056 C 
ATOM     17  C15 UNL     1     120.257 155.162 143.267  0.00  0.00    -0.059 A 
ATOM     18  C16 UNL     1     119.181 155.139 141.071  0.00  0.00    +0.910 A 
ATOM     19  C17 UNL     1     119.856 155.838 142.094  0.00  0.00    -0.556 A 
ENDROOT
BRANCH  12  20
ATOM     20  O2  UNL     1     119.449 150.928 138.826  0.00  0.00    -1.002 OA
ATOM     21  H1  UNL     1     118.510 151.167 138.606  0.00  0.00    +0.646 HD
ENDBRANCH  12  20
BRANCH  18  22
ATOM     22  O3  UNL     1     118.872 155.748 139.858  0.00  0.00    -1.066 OA
ATOM     23  H2  UNL     1     119.105 155.310 138.974  0.00  0.00    +0.673 HD
ENDBRANCH  18  22
TORSDOF 2
ENDMDL
MODEL 8
REMARK VINA RESULT:    -6.093     18.448     20.219
REMARK INTER + INTRA:          -6.449
REMARK INTER:                  -6.449
REMARK INTRA:                   0.000
REMARK UNBOUND:                 0.000
REMARK  Name = Output/Trash/MorphineMOL_ligand_intermediary.pdb
REMARK  3 active torsions:
REMARK  status: ('A' for Active; 'I' for Inactive)
REMARK    1  A    between atoms: O2_2  and  C10_14
REMARK    2  A    between atoms: O3_3  and  C16_20
REMARK    3  A    between atoms: N1_4  and  C14_18
REMARK                            x       y       z     vdW  Elec       q    Type
REMARK                         _______ _______ _______ _____ _____    ______ ____
ROOT
ATOM      1  O1  UNL     1     129.710 142.733 125.399  0.00  0.00    -0.449 OA
ATOM      2  N1  UNL     1     130.958 147.458 127.325  0.00  0.00    -0.642 NA
ATOM      3  C1  UNL     1     130.202 144.750 126.584  0.00  0.00    +0.650 C 
ATOM      4  C2  UNL     1     131.184 145.053 127.738  0.00  0.00    -0.616 C 
ATOM      5  C3  UNL     1     131.950 146.351 127.367  0.00  0.00    +0.961 C 
ATOM      6  C4  UNL     1     129.476 143.355 126.672  0.00  0.00    +0.076 C 
ATOM      7  C5  UNL     1     129.201 145.921 126.441  0.00  0.00    -0.509 C 
ATOM      8  C6  UNL     1     130.991 144.591 125.330  0.00  0.00    -0.625 A 
ATOM      9  C7  UNL     1     132.779 146.209 126.036  0.00  0.00    -0.649 C 
ATOM     10  C8  UNL     1     129.920 147.277 126.287  0.00  0.00    +0.547 C 
ATOM     11  C9  UNL     1     132.156 145.287 125.011  0.00  0.00    +0.652 A 
ATOM     12  C10 UNL     1     130.025 142.467 127.821  0.00  0.00    +0.769 C 
ATOM     13  C11 UNL     1     132.071 143.855 127.993  0.00  0.00    +0.326 C 
ATOM     14  C12 UNL     1     130.641 143.452 124.677  0.00  0.00    +0.450 A 
ATOM     15  C13 UNL     1     131.522 142.631 127.996  0.00  0.00    -0.545 C 
ATOM     16  C14 UNL     1     131.570 148.794 127.249  0.00  0.00    +0.056 C 
ATOM     17  C15 UNL     1     132.831 144.927 123.828  0.00  0.00    -0.059 A 
ATOM     18  C16 UNL     1     131.284 143.062 123.503  0.00  0.00    +0.910 A 
ATOM     19  C17 UNL     1     132.371 143.840 123.054  0.00  0.00    -0.556 A 
ENDROOT
BRANCH  12  20
ATOM     20  O2  UNL     1     129.705 141.122 127.577  0.00  0.00    -1.002 OA
ATOM     21  H1  UNL     1     128.928 141.120 126.959  0.00  0.00    +0.646 HD
ENDBRANCH  12  20
BRANCH  18  22
ATOM     22  O3  UNL     1     130.878 141.918 122.821  0.00  0.00    -1.066 OA
ATOM     23  H2  UNL     1     131.180 140.995 123.112  0.00  0.00    +0.673 HD
ENDBRANCH  18  22
TORSDOF 2
ENDMDL
MODEL 9
REMARK VINA RESULT:    -5.968      2.594      3.365
REMARK INTER + INTRA:          -6.316
REMARK INTER:                  -6.316
REMARK INTRA:                   0.000
REMARK UNBOUND:                 0.000
REMARK  Name = Output/Trash/MorphineMOL_ligand_intermediary.pdb
REMARK  3 active torsions:
REMARK  status: ('A' for Active; 'I' for Inactive)
REMARK    1  A    between atoms: O2_2  and  C10_14
REMARK    2  A    between atoms: O3_3  and  C16_20
REMARK    3  A    between atoms: N1_4  and  C14_18
REMARK                            x       y       z     vdW  Elec       q    Type
REMARK                         _______ _______ _______ _____ _____    ______ ____
ROOT
ATOM      1  O1  UNL     1     120.558 152.190 141.396  0.00  0.00    -0.449 OA
ATOM      2  N1  UNL     1     119.359 154.515 145.951  0.00  0.00    -0.642 NA
ATOM      3  C1  UNL     1     120.071 153.545 143.304  0.00  0.00    +0.650 C 
ATOM      4  C2  UNL     1     119.049 154.682 143.525  0.00  0.00    -0.616 C 
ATOM      5  C3  UNL     1     118.336 154.408 144.878  0.00  0.00    +0.961 C 
ATOM      6  C4  UNL     1     120.753 153.526 141.885  0.00  0.00    +0.076 C 
ATOM      7  C5  UNL     1     121.109 153.558 144.451  0.00  0.00    -0.509 C 
ATOM      8  C6  UNL     1     119.333 152.251 143.292  0.00  0.00    -0.625 A 
ATOM      9  C7  UNL     1     117.562 153.037 144.891  0.00  0.00    -0.649 C 
ATOM     10  C8  UNL     1     120.437 153.508 145.838  0.00  0.00    +0.547 C 
ATOM     11  C9  UNL     1     118.204 151.954 144.052  0.00  0.00    +0.652 A 
ATOM     12  C10 UNL     1     120.131 154.559 140.908  0.00  0.00    +0.769 C 
ATOM     13  C11 UNL     1     118.118 154.783 142.338  0.00  0.00    +0.326 C 
ATOM     14  C12 UNL     1     119.680 151.504 142.210  0.00  0.00    +0.450 A 
ATOM     15  C13 UNL     1     118.632 154.689 141.102  0.00  0.00    -0.545 C 
ATOM     16  C14 UNL     1     118.789 154.545 147.307  0.00  0.00    +0.056 C 
ATOM     17  C15 UNL     1     117.571 150.715 143.830  0.00  0.00    -0.059 A 
ATOM     18  C16 UNL     1     119.078 150.273 141.956  0.00  0.00    +0.910 A 
ATOM     19  C17 UNL     1     118.034 149.857 142.808  0.00  0.00    -0.556 A 
ENDROOT
BRANCH  12  20
ATOM     20  O2  UNL     1     120.423 154.199 139.583  0.00  0.00    -1.002 OA
ATOM     21  H1  UNL     1     121.026 154.900 139.222  0.00  0.00    +0.646 HD
ENDBRANCH  12  20
BRANCH  18  22
ATOM     22  O3  UNL     1     119.482 149.499 140.871  0.00  0.00    -1.066 OA
ATOM     23  H2  UNL     1     119.174 148.539 140.764  0.00  0.00    +0.673 HD
ENDBRANCH  18  22
TORSDOF 2
ENDMDL
