MODEL 1
REMARK VINA RESULT:    -7.364      0.000      0.000
REMARK INTER + INTRA:          -9.657
REMARK INTER:                  -9.085
REMARK INTRA:                  -0.571
REMARK UNBOUND:                -0.571
REMARK  Name = Output/Trash/HeroinSDF_ligand_intermediary.pdb
REMARK  7 active torsions:
REMARK  status: ('A' for Active; 'I' for Inactive)
REMARK    1  A    between atoms: N1_11  and  C17_21
REMARK    2  A    between atoms: C10_12  and  O3_17
REMARK    3  A    between atoms: C11_13  and  O2_16
REMARK    4  A    between atoms: O2_16  and  C18_22
REMARK    5  A    between atoms: O3_17  and  C20_25
REMARK    6  A    between atoms: C18_22  and  C19_23
REMARK    7  A    between atoms: C20_25  and  C21_26
REMARK                            x       y       z     vdW  Elec       q    Type
REMARK                         _______ _______ _______ _____ _____    ______ ____
ROOT
ATOM      1  C1  UNL     1     120.329 153.696 142.537  0.00  0.00    +0.732 C 
ATOM      2  C2  UNL     1     119.399 152.544 142.394  0.00  0.00    -0.561 A 
ATOM      3  C3  UNL     1     119.681 151.824 141.273  0.00  0.00    +0.364 A 
ATOM      4  C4  UNL     1     121.066 153.675 141.148  0.00  0.00    -0.031 C 
ATOM      5  C5  UNL     1     119.498 154.967 142.815  0.00  0.00    -0.605 C 
ATOM      6  O1  UNL     1     120.693 152.426 140.551  0.00  0.00    -0.538 OA
ATOM      7  C6  UNL     1     118.684 154.713 144.113  0.00  0.00    +0.962 C 
ATOM      8  C7  UNL     1     118.193 152.388 143.075  0.00  0.00    +0.697 A 
ATOM      9  C8  UNL     1     118.654 155.312 141.611  0.00  0.00    +0.232 C 
ATOM     10  C9  UNL     1     117.697 153.494 143.982  0.00  0.00    -0.653 C 
ATOM     11  N1  UNL     1     119.657 154.565 145.228  0.00  0.00    -0.639 NA
ATOM     12  C10 UNL     1     120.657 154.855 140.222  0.00  0.00    +0.841 C 
ATOM     13  C11 UNL     1     118.900 150.722 140.895  0.00  0.00    +0.816 A 
ATOM     14  C12 UNL     1     119.199 155.224 140.387  0.00  0.00    -0.368 C 
ATOM     15  C13 UNL     1     121.300 153.452 143.718  0.00  0.00    -0.517 C 
ATOM     16  C14 UNL     1     120.561 153.405 145.069  0.00  0.00    +0.557 C 
ATOM     17  C15 UNL     1     117.372 151.302 142.718  0.00  0.00    -0.191 A 
ATOM     18  C16 UNL     1     117.742 150.456 141.651  0.00  0.00    -0.280 A 
ATOM     19  C17 UNL     1     119.031 154.581 146.561  0.00  0.00    +0.061 C 
ENDROOT
BRANCH  13  20
ATOM     20  O2  UNL     1     119.181 149.938 139.767  0.00  0.00    -1.295 OA
BRANCH  20  21
ATOM     21  C18 UNL     1     118.742 150.219 138.467  0.00  0.00    +2.882 C 
ATOM     22  C19 UNL     1     117.782 149.289 137.805  0.00  0.00    -1.023 C 
ATOM     23  O4  UNL     1     119.217 151.189 137.817  0.00  0.00    -0.998 OA
ENDBRANCH  20  21
ENDBRANCH  13  20
BRANCH  12  24
ATOM     24  O3  UNL     1     120.903 154.529 138.854  0.00  0.00    -1.299 OA
BRANCH  24  25
ATOM     25  C20 UNL     1     122.155 154.137 138.365  0.00  0.00    +2.903 C 
ATOM     26  C21 UNL     1     123.344 154.995 138.626  0.00  0.00    -1.028 C 
ATOM     27  O5  UNL     1     122.279 153.091 137.673  0.00  0.00    -1.022 OA
ENDBRANCH  24  25
ENDBRANCH  12  24
TORSDOF 4
ENDMDL
MODEL 2
REMARK VINA RESULT:    -7.141      2.372      4.619
REMARK INTER + INTRA:          -9.382
REMARK INTER:                  -8.796
REMARK INTRA:                  -0.587
REMARK UNBOUND:                -0.571
REMARK  Name = Output/Trash/HeroinSDF_ligand_intermediary.pdb
REMARK  7 active torsions:
REMARK  status: ('A' for Active; 'I' for Inactive)
REMARK    1  A    between atoms: N1_11  and  C17_21
REMARK    2  A    between atoms: C10_12  and  O3_17
REMARK    3  A    between atoms: C11_13  and  O2_16
REMARK    4  A    between atoms: O2_16  and  C18_22
REMARK    5  A    between atoms: O3_17  and  C20_25
REMARK    6  A    between atoms: C18_22  and  C19_23
REMARK    7  A    between atoms: C20_25  and  C21_26
REMARK                            x       y       z     vdW  Elec       q    Type
REMARK                         _______ _______ _______ _____ _____    ______ ____
ROOT
ATOM      1  C1  UNL     1     119.831 153.265 142.422  0.00  0.00    +0.732 C 
ATOM      2  C2  UNL     1     120.097 152.894 141.004  0.00  0.00    -0.561 A 
ATOM      3  C3  UNL     1     120.912 153.807 140.405  0.00  0.00    +0.364 A 
ATOM      4  C4  UNL     1     120.442 154.712 142.483  0.00  0.00    -0.031 C 
ATOM      5  C5  UNL     1     118.310 153.186 142.673  0.00  0.00    -0.605 C 
ATOM      6  O1  UNL     1     121.182 154.854 141.263  0.00  0.00    -0.538 OA
ATOM      7  C6  UNL     1     117.863 151.733 142.359  0.00  0.00    +0.962 C 
ATOM      8  C7  UNL     1     119.368 151.968 140.260  0.00  0.00    +0.697 A 
ATOM      9  C8  UNL     1     117.594 154.244 141.866  0.00  0.00    +0.232 C 
ATOM     10  C9  UNL     1     118.141 151.322 140.865  0.00  0.00    -0.653 C 
ATOM     11  N1  UNL     1     118.524 150.840 143.348  0.00  0.00    -0.639 NA
ATOM     12  C10 UNL     1     119.362 155.827 142.587  0.00  0.00    +0.841 C 
ATOM     13  C11 UNL     1     121.255 153.701 139.049  0.00  0.00    +0.816 A 
ATOM     14  C12 UNL     1     118.115 155.479 141.804  0.00  0.00    -0.368 C 
ATOM     15  C13 UNL     1     120.558 152.283 143.372  0.00  0.00    -0.517 C 
ATOM     16  C14 UNL     1     120.000 150.851 143.255  0.00  0.00    +0.557 C 
ATOM     17  C15 UNL     1     119.673 151.839 138.892  0.00  0.00    -0.191 A 
ATOM     18  C16 UNL     1     120.635 152.683 138.299  0.00  0.00    -0.280 A 
ATOM     19  C17 UNL     1     117.995 149.466 143.345  0.00  0.00    +0.061 C 
ENDROOT
BRANCH  13  20
ATOM     20  O2  UNL     1     122.119 154.601 138.409  0.00  0.00    -1.295 OA
BRANCH  20  21
ATOM     21  C18 UNL     1     123.492 154.708 138.659  0.00  0.00    +2.882 C 
ATOM     22  C19 UNL     1     124.279 155.770 137.968  0.00  0.00    -1.023 C 
ATOM     23  O4  UNL     1     124.089 153.864 139.382  0.00  0.00    -0.998 OA
ENDBRANCH  20  21
ENDBRANCH  13  20
BRANCH  12  24
ATOM     24  O3  UNL     1     119.877 157.072 142.117  0.00  0.00    -1.299 OA
BRANCH  24  25
ATOM     25  C20 UNL     1     120.052 158.195 142.933  0.00  0.00    +2.903 C 
ATOM     26  C21 UNL     1     119.400 159.481 142.559  0.00  0.00    -1.028 C 
ATOM     27  O5  UNL     1     120.787 158.142 143.956  0.00  0.00    -1.022 OA
ENDBRANCH  24  25
ENDBRANCH  12  24
TORSDOF 4
ENDMDL
MODEL 3
REMARK VINA RESULT:    -7.084      3.340      6.549
REMARK INTER + INTRA:          -9.311
REMARK INTER:                  -8.605
REMARK INTRA:                  -0.706
REMARK UNBOUND:                -0.571
REMARK  Name = Output/Trash/HeroinSDF_ligand_intermediary.pdb
REMARK  7 active torsions:
REMARK  status: ('A' for Active; 'I' for Inactive)
REMARK    1  A    between atoms: N1_11  and  C17_21
REMARK    2  A    between atoms: C10_12  and  O3_17
REMARK    3  A    between atoms: C11_13  and  O2_16
REMARK    4  A    between atoms: O2_16  and  C18_22
REMARK    5  A    between atoms: O3_17  and  C20_25
REMARK    6  A    between atoms: C18_22  and  C19_23
REMARK    7  A    between atoms: C20_25  and  C21_26
REMARK                            x       y       z     vdW  Elec       q    Type
REMARK                         _______ _______ _______ _____ _____    ______ ____
ROOT
ATOM      1  C1  UNL     1     119.979 151.242 142.317  0.00  0.00    +0.732 C 
ATOM      2  C2  UNL     1     119.551 152.660 142.165  0.00  0.00    -0.561 A 
ATOM      3  C3  UNL     1     120.058 153.433 143.164  0.00  0.00    +0.364 A 
ATOM      4  C4  UNL     1     120.636 151.268 143.745  0.00  0.00    -0.031 C 
ATOM      5  C5  UNL     1     118.735 150.337 142.187  0.00  0.00    -0.605 C 
ATOM      6  O1  UNL     1     120.750 152.659 144.075  0.00  0.00    -0.538 OA
ATOM      7  C6  UNL     1     118.109 150.608 140.792  0.00  0.00    +0.962 C 
ATOM      8  C7  UNL     1     118.510 153.108 141.353  0.00  0.00    +0.697 A 
ATOM      9  C8  UNL     1     117.796 150.573 143.346  0.00  0.00    +0.232 C 
ATOM     10  C9  UNL     1     117.655 152.104 140.612  0.00  0.00    -0.653 C 
ATOM     11  N1  UNL     1     119.092 150.164 139.768  0.00  0.00    -0.639 NA
ATOM     12  C10 UNL     1     119.789 150.530 144.821  0.00  0.00    +0.841 C 
ATOM     13  C11 UNL     1     119.743 154.797 143.266  0.00  0.00    +0.816 A 
ATOM     14  C12 UNL     1     118.304 150.697 144.582  0.00  0.00    -0.368 C 
ATOM     15  C13 UNL     1     120.998 150.874 141.212  0.00  0.00    -0.517 C 
ATOM     16  C14 UNL     1     120.363 150.918 139.807  0.00  0.00    +0.557 C 
ATOM     17  C15 UNL     1     118.154 154.467 141.433  0.00  0.00    -0.191 A 
ATOM     18  C16 UNL     1     118.791 155.313 142.366  0.00  0.00    -0.280 A 
ATOM     19  C17 UNL     1     118.538 150.114 138.404  0.00  0.00    +0.061 C 
ENDROOT
BRANCH  13  20
ATOM     20  O2  UNL     1     120.274 155.631 144.260  0.00  0.00    -1.295 OA
BRANCH  20  21
ATOM     21  C18 UNL     1     121.504 156.294 144.175  0.00  0.00    +2.882 C 
ATOM     22  C19 UNL     1     121.563 157.643 143.542  0.00  0.00    -1.023 C 
ATOM     23  O4  UNL     1     122.573 155.731 144.537  0.00  0.00    -0.998 OA
ENDBRANCH  20  21
ENDBRANCH  13  20
BRANCH  12  24
ATOM     24  O3  UNL     1     120.108 151.008 146.127  0.00  0.00    -1.299 OA
BRANCH  24  25
ATOM     25  C20 UNL     1     120.973 150.344 147.004  0.00  0.00    +2.903 C 
ATOM     26  C21 UNL     1     120.645 148.961 147.450  0.00  0.00    -1.028 C 
ATOM     27  O5  UNL     1     122.003 150.916 147.453  0.00  0.00    -1.022 OA
ENDBRANCH  24  25
ENDBRANCH  12  24
TORSDOF 4
ENDMDL
MODEL 4
REMARK VINA RESULT:    -6.993      2.621      4.587
REMARK INTER + INTRA:          -9.200
REMARK INTER:                  -8.682
REMARK INTRA:                  -0.518
REMARK UNBOUND:                -0.571
REMARK  Name = Output/Trash/HeroinSDF_ligand_intermediary.pdb
REMARK  7 active torsions:
REMARK  status: ('A' for Active; 'I' for Inactive)
REMARK    1  A    between atoms: N1_11  and  C17_21
REMARK    2  A    between atoms: C10_12  and  O3_17
REMARK    3  A    between atoms: C11_13  and  O2_16
REMARK    4  A    between atoms: O2_16  and  C18_22
REMARK    5  A    between atoms: O3_17  and  C20_25
REMARK    6  A    between atoms: C18_22  and  C19_23
REMARK    7  A    between atoms: C20_25  and  C21_26
REMARK                            x       y       z     vdW  Elec       q    Type
REMARK                         _______ _______ _______ _____ _____    ______ ____
ROOT
ATOM      1  C1  UNL     1     120.164 153.247 141.989  0.00  0.00    +0.732 C 
ATOM      2  C2  UNL     1     119.995 152.800 143.399  0.00  0.00    -0.561 A 
ATOM      3  C3  UNL     1     120.128 151.449 143.503  0.00  0.00    +0.364 A 
ATOM      4  C4  UNL     1     120.174 151.872 141.227  0.00  0.00    -0.031 C 
ATOM      5  C5  UNL     1     118.993 154.185 141.628  0.00  0.00    -0.605 C 
ATOM      6  O1  UNL     1     120.294 150.880 142.256  0.00  0.00    -0.538 OA
ATOM      7  C6  UNL     1     119.029 155.377 142.623  0.00  0.00    +0.962 C 
ATOM      8  C7  UNL     1     119.436 153.558 144.427  0.00  0.00    +0.697 A 
ATOM      9  C8  UNL     1     117.692 153.417 141.626  0.00  0.00    +0.232 C 
ATOM     10  C9  UNL     1     118.856 154.922 144.120  0.00  0.00    -0.653 C 
ATOM     11  N1  UNL     1     120.291 156.125 142.377  0.00  0.00    -0.639 NA
ATOM     12  C10 UNL     1     118.884 151.626 140.394  0.00  0.00    +0.841 C 
ATOM     13  C11 UNL     1     119.951 150.788 144.728  0.00  0.00    +0.816 A 
ATOM     14  C12 UNL     1     117.657 152.196 141.071  0.00  0.00    -0.368 C 
ATOM     15  C13 UNL     1     121.500 154.013 141.832  0.00  0.00    -0.517 C 
ATOM     16  C14 UNL     1     121.508 155.327 142.638  0.00  0.00    +0.557 C 
ATOM     17  C15 UNL     1     119.230 152.930 145.669  0.00  0.00    -0.191 A 
ATOM     18  C16 UNL     1     119.516 151.557 145.824  0.00  0.00    -0.280 A 
ATOM     19  C17 UNL     1     120.344 157.428 143.061  0.00  0.00    +0.061 C 
ENDROOT
BRANCH  13  20
ATOM     20  O2  UNL     1     120.114 149.404 144.878  0.00  0.00    -1.295 OA
BRANCH  20  21
ATOM     21  C18 UNL     1     120.954 148.795 145.819  0.00  0.00    +2.882 C 
ATOM     22  C19 UNL     1     120.396 148.390 147.141  0.00  0.00    -1.023 C 
ATOM     23  O4  UNL     1     122.190 148.672 145.603  0.00  0.00    -0.998 OA
ENDBRANCH  20  21
ENDBRANCH  13  20
BRANCH  12  24
ATOM     24  O3  UNL     1     118.688 150.230 140.170  0.00  0.00    -1.299 OA
BRANCH  24  25
ATOM     25  C20 UNL     1     118.425 149.677 138.912  0.00  0.00    +2.903 C 
ATOM     26  C21 UNL     1     117.256 150.166 138.128  0.00  0.00    -1.028 C 
ATOM     27  O5  UNL     1     119.138 148.744 138.453  0.00  0.00    -1.022 OA
ENDBRANCH  24  25
ENDBRANCH  12  24
TORSDOF 4
ENDMDL
MODEL 5
REMARK VINA RESULT:    -6.747      2.802      6.051
REMARK INTER + INTRA:          -8.895
REMARK INTER:                  -8.139
REMARK INTRA:                  -0.756
REMARK UNBOUND:                -0.571
REMARK  Name = Output/Trash/HeroinSDF_ligand_intermediary.pdb
REMARK  7 active torsions:
REMARK  status: ('A' for Active; 'I' for Inactive)
REMARK    1  A    between atoms: N1_11  and  C17_21
REMARK    2  A    between atoms: C10_12  and  O3_17
REMARK    3  A    between atoms: C11_13  and  O2_16
REMARK    4  A    between atoms: O2_16  and  C18_22
REMARK    5  A    between atoms: O3_17  and  C20_25
REMARK    6  A    between atoms: C18_22  and  C19_23
REMARK    7  A    between atoms: C20_25  and  C21_26
REMARK                            x       y       z     vdW  Elec       q    Type
REMARK                         _______ _______ _______ _____ _____    ______ ____
ROOT
ATOM      1  C1  UNL     1     120.221 152.419 141.459  0.00  0.00    +0.732 C 
ATOM      2  C2  UNL     1     121.082 153.074 140.437  0.00  0.00    -0.561 A 
ATOM      3  C3  UNL     1     121.912 153.988 141.011  0.00  0.00    +0.364 A 
ATOM      4  C4  UNL     1     120.519 153.300 142.727  0.00  0.00    -0.031 C 
ATOM      5  C5  UNL     1     118.758 152.457 140.967  0.00  0.00    -0.605 C 
ATOM      6  O1  UNL     1     121.650 154.102 142.362  0.00  0.00    -0.538 OA
ATOM      7  C6  UNL     1     118.709 151.715 139.604  0.00  0.00    +0.962 C 
ATOM      8  C7  UNL     1     120.865 153.049 139.061  0.00  0.00    +0.697 A 
ATOM      9  C8  UNL     1     118.263 153.884 140.915  0.00  0.00    +0.232 C 
ATOM     10  C9  UNL     1     119.618 152.392 138.511  0.00  0.00    -0.653 C 
ATOM     11  N1  UNL     1     119.055 150.291 139.858  0.00  0.00    -0.639 NA
ATOM     12  C10 UNL     1     119.325 154.210 143.133  0.00  0.00    +0.841 C 
ATOM     13  C11 UNL     1     122.778 154.776 140.238  0.00  0.00    +0.816 A 
ATOM     14  C12 UNL     1     118.564 154.714 141.926  0.00  0.00    -0.368 C 
ATOM     15  C13 UNL     1     120.656 150.946 141.656  0.00  0.00    -0.517 C 
ATOM     16  C14 UNL     1     120.424 150.105 140.385  0.00  0.00    +0.557 C 
ATOM     17  C15 UNL     1     121.705 153.836 138.249  0.00  0.00    -0.191 A 
ATOM     18  C16 UNL     1     122.676 154.672 138.838  0.00  0.00    -0.280 A 
ATOM     19  C17 UNL     1     118.796 149.409 138.708  0.00  0.00    +0.061 C 
ENDROOT
BRANCH  13  20
ATOM     20  O2  UNL     1     123.670 155.703 140.798  0.00  0.00    -1.295 OA
BRANCH  20  21
ATOM     21  C18 UNL     1     124.845 155.368 141.482  0.00  0.00    +2.882 C 
ATOM     22  C19 UNL     1     125.930 154.645 140.758  0.00  0.00    -1.023 C 
ATOM     23  O4  UNL     1     124.961 155.584 142.719  0.00  0.00    -0.998 OA
ENDBRANCH  20  21
ENDBRANCH  13  20
BRANCH  12  24
ATOM     24  O3  UNL     1     119.780 155.326 143.897  0.00  0.00    -1.299 OA
BRANCH  24  25
ATOM     25  C20 UNL     1     120.032 155.271 145.273  0.00  0.00    +2.903 C 
ATOM     26  C21 UNL     1     118.973 154.764 146.191  0.00  0.00    -1.028 C 
ATOM     27  O5  UNL     1     121.125 155.683 145.747  0.00  0.00    -1.022 OA
ENDBRANCH  24  25
ENDBRANCH  12  24
TORSDOF 4
ENDMDL
MODEL 6
REMARK VINA RESULT:    -6.738      3.423      5.901
REMARK INTER + INTRA:          -8.885
REMARK INTER:                  -8.247
REMARK INTRA:                  -0.638
REMARK UNBOUND:                -0.571
REMARK  Name = Output/Trash/HeroinSDF_ligand_intermediary.pdb
REMARK  7 active torsions:
REMARK  status: ('A' for Active; 'I' for Inactive)
REMARK    1  A    between atoms: N1_11  and  C17_21
REMARK    2  A    between atoms: C10_12  and  O3_17
REMARK    3  A    between atoms: C11_13  and  O2_16
REMARK    4  A    between atoms: O2_16  and  C18_22
REMARK    5  A    between atoms: O3_17  and  C20_25
REMARK    6  A    between atoms: C18_22  and  C19_23
REMARK    7  A    between atoms: C20_25  and  C21_26
REMARK                            x       y       z     vdW  Elec       q    Type
REMARK                         _______ _______ _______ _____ _____    ______ ____
ROOT
ATOM      1  C1  UNL     1     122.177 156.549 143.429  0.00  0.00    +0.732 C 
ATOM      2  C2  UNL     1     123.441 156.067 142.809  0.00  0.00    -0.561 A 
ATOM      3  C3  UNL     1     123.200 155.462 141.613  0.00  0.00    +0.364 A 
ATOM      4  C4  UNL     1     121.101 155.891 142.490  0.00  0.00    -0.031 C 
ATOM      5  C5  UNL     1     122.138 156.076 144.898  0.00  0.00    -0.605 C 
ATOM      6  O1  UNL     1     121.843 155.396 141.368  0.00  0.00    -0.538 OA
ATOM      7  C6  UNL     1     123.391 156.660 145.606  0.00  0.00    +0.962 C 
ATOM      8  C7  UNL     1     124.660 155.916 143.469  0.00  0.00    +0.697 A 
ATOM      9  C8  UNL     1     122.037 154.569 144.957  0.00  0.00    +0.232 C 
ATOM     10  C9  UNL     1     124.738 156.164 144.960  0.00  0.00    -0.653 C 
ATOM     11  N1  UNL     1     123.251 158.140 145.611  0.00  0.00    -0.639 NA
ATOM     12  C10 UNL     1     120.323 154.729 143.173  0.00  0.00    +0.841 C 
ATOM     13  C11 UNL     1     124.234 154.875 140.869  0.00  0.00    +0.816 A 
ATOM     14  C12 UNL     1     121.203 153.939 144.117  0.00  0.00    -0.368 C 
ATOM     15  C13 UNL     1     122.120 158.095 143.388  0.00  0.00    -0.517 C 
ATOM     16  C14 UNL     1     123.223 158.733 144.257  0.00  0.00    +0.557 C 
ATOM     17  C15 UNL     1     125.720 155.320 142.762  0.00  0.00    -0.191 A 
ATOM     18  C16 UNL     1     125.513 154.830 141.456  0.00  0.00    -0.280 A 
ATOM     19  C17 UNL     1     124.229 158.820 146.477  0.00  0.00    +0.061 C 
ENDROOT
BRANCH  13  20
ATOM     20  O2  UNL     1     124.027 154.274 139.618  0.00  0.00    -1.295 OA
BRANCH  20  21
ATOM     21  C18 UNL     1     123.549 154.938 138.482  0.00  0.00    +2.882 C 
ATOM     22  C19 UNL     1     122.317 154.434 137.808  0.00  0.00    -1.023 C 
ATOM     23  O4  UNL     1     124.192 155.891 137.966  0.00  0.00    -0.998 OA
ENDBRANCH  20  21
ENDBRANCH  13  20
BRANCH  12  24
ATOM     24  O3  UNL     1     119.777 153.846 142.194  0.00  0.00    -1.299 OA
BRANCH  24  25
ATOM     25  C20 UNL     1     118.404 153.698 141.964  0.00  0.00    +2.903 C 
ATOM     26  C21 UNL     1     117.807 152.333 141.946  0.00  0.00    -1.028 C 
ATOM     27  O5  UNL     1     117.677 154.701 141.730  0.00  0.00    -1.022 OA
ENDBRANCH  24  25
ENDBRANCH  12  24
TORSDOF 4
ENDMDL
MODEL 7
REMARK VINA RESULT:    -6.594      2.481      4.885
REMARK INTER + INTRA:          -8.707
REMARK INTER:                  -7.970
REMARK INTRA:                  -0.737
REMARK UNBOUND:                -0.571
REMARK  Name = Output/Trash/HeroinSDF_ligand_intermediary.pdb
REMARK  7 active torsions:
REMARK  status: ('A' for Active; 'I' for Inactive)
REMARK    1  A    between atoms: N1_11  and  C17_21
REMARK    2  A    between atoms: C10_12  and  O3_17
REMARK    3  A    between atoms: C11_13  and  O2_16
REMARK    4  A    between atoms: O2_16  and  C18_22
REMARK    5  A    between atoms: O3_17  and  C20_25
REMARK    6  A    between atoms: C18_22  and  C19_23
REMARK    7  A    between atoms: C20_25  and  C21_26
REMARK                            x       y       z     vdW  Elec       q    Type
REMARK                         _______ _______ _______ _____ _____    ______ ____
ROOT
ATOM      1  C1  UNL     1     120.379 155.911 142.961  0.00  0.00    +0.732 C 
ATOM      2  C2  UNL     1     121.316 155.614 141.843  0.00  0.00    -0.561 A 
ATOM      3  C3  UNL     1     120.656 155.062 140.787  0.00  0.00    +0.364 A 
ATOM      4  C4  UNL     1     119.069 155.196 142.467  0.00  0.00    -0.031 C 
ATOM      5  C5  UNL     1     120.979 155.345 144.266  0.00  0.00    -0.605 C 
ATOM      6  O1  UNL     1     119.327 154.859 141.097  0.00  0.00    -0.538 OA
ATOM      7  C6  UNL     1     122.361 156.021 144.472  0.00  0.00    +0.962 C 
ATOM      8  C7  UNL     1     122.705 155.560 141.944  0.00  0.00    +0.697 A 
ATOM      9  C8  UNL     1     121.027 153.837 144.207  0.00  0.00    +0.232 C 
ATOM     10  C9  UNL     1     123.364 155.721 143.296  0.00  0.00    -0.653 C 
ATOM     11  N1  UNL     1     122.121 157.473 144.685  0.00  0.00    -0.639 NA
ATOM     12  C10 UNL     1     118.729 153.915 143.279  0.00  0.00    +0.841 C 
ATOM     13  C11 UNL     1     121.340 154.642 139.636  0.00  0.00    +0.816 A 
ATOM     14  C12 UNL     1     119.974 153.170 143.708  0.00  0.00    -0.368 C 
ATOM     15  C13 UNL     1     120.192 157.441 143.105  0.00  0.00    -0.517 C 
ATOM     16  C14 UNL     1     121.499 158.143 143.523  0.00  0.00    +0.557 C 
ATOM     17  C15 UNL     1     123.429 155.132 140.815  0.00  0.00    -0.191 A 
ATOM     18  C16 UNL     1     122.747 154.704 139.657  0.00  0.00    -0.280 A 
ATOM     19  C17 UNL     1     123.311 158.203 145.154  0.00  0.00    +0.061 C 
ENDROOT
BRANCH  13  20
ATOM     20  O2  UNL     1     120.690 154.102 138.517  0.00  0.00    -1.295 OA
BRANCH  20  21
ATOM     21  C18 UNL     1     120.379 152.747 138.350  0.00  0.00    +2.882 C 
ATOM     22  C19 UNL     1     120.594 151.804 139.485  0.00  0.00    -1.023 C 
ATOM     23  O4  UNL     1     120.010 152.298 137.231  0.00  0.00    -0.998 OA
ENDBRANCH  20  21
ENDBRANCH  13  20
BRANCH  12  24
ATOM     24  O3  UNL     1     117.902 153.038 142.514  0.00  0.00    -1.299 OA
BRANCH  24  25
ATOM     25  C20 UNL     1     117.650 151.707 142.866  0.00  0.00    +2.903 C 
ATOM     26  C21 UNL     1     118.014 150.618 141.917  0.00  0.00    -1.028 C 
ATOM     27  O5  UNL     1     117.082 151.423 143.955  0.00  0.00    -1.022 OA
ENDBRANCH  24  25
ENDBRANCH  12  24
TORSDOF 4
ENDMDL
MODEL 8
REMARK VINA RESULT:    -6.197     19.608     22.498
REMARK INTER + INTRA:          -8.217
REMARK INTER:                  -7.591
REMARK INTRA:                  -0.625
REMARK UNBOUND:                -0.571
REMARK  Name = Output/Trash/HeroinSDF_ligand_intermediary.pdb
REMARK  7 active torsions:
REMARK  status: ('A' for Active; 'I' for Inactive)
REMARK    1  A    between atoms: N1_11  and  C17_21
REMARK    2  A    between atoms: C10_12  and  O3_17
REMARK    3  A    between atoms: C11_13  and  O2_16
REMARK    4  A    between atoms: O2_16  and  C18_22
REMARK    5  A    between atoms: O3_17  and  C20_25
REMARK    6  A    between atoms: C18_22  and  C19_23
REMARK    7  A    between atoms: C20_25  and  C21_26
REMARK                            x       y       z     vdW  Elec       q    Type
REMARK                         _______ _______ _______ _____ _____    ______ ____
ROOT
ATOM      1  C1  UNL     1     132.187 143.559 126.476  0.00  0.00    +0.732 C 
ATOM      2  C2  UNL     1     132.140 142.570 125.364  0.00  0.00    -0.561 A 
ATOM      3  C3  UNL     1     131.738 143.158 124.204  0.00  0.00    +0.364 A 
ATOM      4  C4  UNL     1     131.492 144.804 125.813  0.00  0.00    -0.031 C 
ATOM      5  C5  UNL     1     131.443 142.967 127.692  0.00  0.00    -0.605 C 
ATOM      6  O1  UNL     1     131.409 144.481 124.418  0.00  0.00    -0.538 OA
ATOM      7  C6  UNL     1     132.153 141.638 128.067  0.00  0.00    +0.962 C 
ATOM      8  C7  UNL     1     132.150 141.184 125.514  0.00  0.00    +0.697 A 
ATOM      9  C8  UNL     1     129.972 142.819 127.381  0.00  0.00    +0.232 C 
ATOM     10  C9  UNL     1     132.117 140.581 126.901  0.00  0.00    -0.653 C 
ATOM     11  N1  UNL     1     133.531 141.978 128.511  0.00  0.00    -0.639 NA
ATOM     12  C10 UNL     1     130.073 145.087 126.383  0.00  0.00    +0.841 C 
ATOM     13  C11 UNL     1     131.561 142.412 123.029  0.00  0.00    +0.816 A 
ATOM     14  C12 UNL     1     129.340 143.810 126.734  0.00  0.00    -0.368 C 
ATOM     15  C13 UNL     1     133.656 143.849 126.867  0.00  0.00    -0.517 C 
ATOM     16  C14 UNL     1     134.352 142.604 127.452  0.00  0.00    +0.557 C 
ATOM     17  C15 UNL     1     131.964 140.398 124.361  0.00  0.00    -0.191 A 
ATOM     18  C16 UNL     1     131.701 141.014 123.119  0.00  0.00    -0.280 A 
ATOM     19  C17 UNL     1     134.238 140.853 129.146  0.00  0.00    +0.061 C 
ENDROOT
BRANCH  13  20
ATOM     20  O2  UNL     1     131.183 142.989 121.808  0.00  0.00    -1.295 OA
BRANCH  20  21
ATOM     21  C18 UNL     1     132.073 143.434 120.823  0.00  0.00    +2.882 C 
ATOM     22  C19 UNL     1     131.555 144.245 119.684  0.00  0.00    -1.023 C 
ATOM     23  O4  UNL     1     133.284 143.082 120.835  0.00  0.00    -0.998 OA
ENDBRANCH  20  21
ENDBRANCH  13  20
BRANCH  12  24
ATOM     24  O3  UNL     1     129.293 145.831 125.447  0.00  0.00    -1.299 OA
BRANCH  24  25
ATOM     25  C20 UNL     1     129.042 147.202 125.565  0.00  0.00    +2.903 C 
ATOM     26  C21 UNL     1     128.439 147.730 126.821  0.00  0.00    -1.028 C 
ATOM     27  O5  UNL     1     129.281 147.988 124.609  0.00  0.00    -1.022 OA
ENDBRANCH  24  25
ENDBRANCH  12  24
TORSDOF 4
ENDMDL
MODEL 9
REMARK VINA RESULT:    -6.166      3.197      5.658
REMARK INTER + INTRA:          -8.178
REMARK INTER:                  -7.534
REMARK INTRA:                  -0.645
REMARK UNBOUND:                -0.571
REMARK  Name = Output/Trash/HeroinSDF_ligand_intermediary.pdb
REMARK  7 active torsions:
REMARK  status: ('A' for Active; 'I' for Inactive)
REMARK    1  A    between atoms: N1_11  and  C17_21
REMARK    2  A    between atoms: C10_12  and  O3_17
REMARK    3  A    between atoms: C11_13  and  O2_16
REMARK    4  A    between atoms: O2_16  and  C18_22
REMARK    5  A    between atoms: O3_17  and  C20_25
REMARK    6  A    between atoms: C18_22  and  C19_23
REMARK    7  A    between atoms: C20_25  and  C21_26
REMARK                            x       y       z     vdW  Elec       q    Type
REMARK                         _______ _______ _______ _____ _____    ______ ____
ROOT
ATOM      1  C1  UNL     1     118.995 153.350 141.730  0.00  0.00    +0.732 C 
ATOM      2  C2  UNL     1     119.467 152.535 142.883  0.00  0.00    -0.561 A 
ATOM      3  C3  UNL     1     119.322 153.214 144.054  0.00  0.00    +0.364 A 
ATOM      4  C4  UNL     1     118.772 154.750 142.411  0.00  0.00    -0.031 C 
ATOM      5  C5  UNL     1     120.080 153.324 140.633  0.00  0.00    -0.605 C 
ATOM      6  O1  UNL     1     118.860 154.494 143.819  0.00  0.00    -0.538 OA
ATOM      7  C6  UNL     1     120.304 151.838 140.239  0.00  0.00    +0.962 C 
ATOM      8  C7  UNL     1     120.266 151.396 142.794  0.00  0.00    +0.697 A 
ATOM      9  C8  UNL     1     121.324 154.034 141.112  0.00  0.00    +0.232 C 
ATOM     10  C9  UNL     1     120.800 150.959 141.447  0.00  0.00    -0.653 C 
ATOM     11  N1  UNL     1     119.042 151.342 139.629  0.00  0.00    -0.639 NA
ATOM     12  C10 UNL     1     119.831 155.809 141.992  0.00  0.00    +0.841 C 
ATOM     13  C11 UNL     1     119.753 152.670 145.273  0.00  0.00    +0.816 A 
ATOM     14  C12 UNL     1     121.196 155.190 141.782  0.00  0.00    -0.368 C 
ATOM     15  C13 UNL     1     117.680 152.760 141.165  0.00  0.00    -0.517 C 
ATOM     16  C14 UNL     1     117.894 151.358 140.561  0.00  0.00    +0.557 C 
ATOM     17  C15 UNL     1     120.730 150.825 143.994  0.00  0.00    -0.191 A 
ATOM     18  C16 UNL     1     120.448 151.446 145.229  0.00  0.00    -0.280 A 
ATOM     19  C17 UNL     1     119.183 150.034 138.969  0.00  0.00    +0.061 C 
ENDROOT
BRANCH  13  20
ATOM     20  O2  UNL     1     119.589 153.326 146.502  0.00  0.00    -1.295 OA
BRANCH  20  21
ATOM     21  C18 UNL     1     118.356 153.569 147.120  0.00  0.00    +2.882 C 
ATOM     22  C19 UNL     1     117.388 152.447 147.282  0.00  0.00    -1.023 C 
ATOM     23  O4  UNL     1     118.016 154.736 147.454  0.00  0.00    -0.998 OA
ENDBRANCH  20  21
ENDBRANCH  13  20
BRANCH  12  24
ATOM     24  O3  UNL     1     119.932 156.838 142.976  0.00  0.00    -1.299 OA
BRANCH  24  25
ATOM     25  C20 UNL     1     121.096 157.099 143.707  0.00  0.00    +2.903 C 
ATOM     26  C21 UNL     1     121.363 156.333 144.957  0.00  0.00    -1.028 C 
ATOM     27  O5  UNL     1     121.899 158.001 143.344  0.00  0.00    -1.022 OA
ENDBRANCH  24  25
ENDBRANCH  12  24
TORSDOF 4
ENDMDL
