MODEL 1
REMARK VINA RESULT:    -7.522      0.000      0.000
REMARK INTER + INTRA:          -7.961
REMARK INTER:                  -7.961
REMARK INTRA:                   0.000
REMARK UNBOUND:                 0.000
REMARK  Name = Output/Trash/MorphineMOL_ligand_intermediary.pdb
REMARK  3 active torsions:
REMARK  status: ('A' for Active; 'I' for Inactive)
REMARK    1  A    between atoms: O2_2  and  C10_14
REMARK    2  A    between atoms: O3_3  and  C16_20
REMARK    3  A    between atoms: N1_4  and  C14_18
REMARK                            x       y       z     vdW  Elec       q    Type
REMARK                         _______ _______ _______ _____ _____    ______ ____
ROOT
ATOM      1  O1  UNL     1     120.561 116.663  90.765  0.00  0.00    -0.449 OA
ATOM      2  N1  UNL     1     120.841 119.341  95.274  0.00  0.00    -0.642 NA
ATOM      3  C1  UNL     1     120.971 118.026  92.684  0.00  0.00    +0.650 C 
ATOM      4  C2  UNL     1     121.116 119.555  92.849  0.00  0.00    -0.616 C 
ATOM      5  C3  UNL     1     120.250 119.976  94.067  0.00  0.00    +0.961 C 
ATOM      6  C4  UNL     1     121.610 117.431  91.374  0.00  0.00    +0.076 C 
ATOM      7  C5  UNL     1     121.492 117.322  93.960  0.00  0.00    -0.509 C 
ATOM      8  C6  UNL     1     119.530 117.715  92.476  0.00  0.00    -0.625 A 
ATOM      9  C7  UNL     1     118.724 119.641  93.872  0.00  0.00    -0.649 C 
ATOM     10  C8  UNL     1     120.812 117.862  95.235  0.00  0.00    +0.547 C 
ATOM     11  C9  UNL     1     118.460 118.399  93.050  0.00  0.00    +0.652 A 
ATOM     12  C10 UNL     1     122.115 118.531  90.401  0.00  0.00    +0.769 C 
ATOM     13  C11 UNL     1     120.758 120.254  91.557  0.00  0.00    +0.326 C 
ATOM     14  C12 UNL     1     119.359 116.904  91.398  0.00  0.00    +0.450 A 
ATOM     15  C13 UNL     1     121.204 119.744  90.399  0.00  0.00    -0.545 C 
ATOM     16  C14 UNL     1     120.292 119.856  96.539  0.00  0.00    +0.056 C 
ATOM     17  C15 UNL     1     117.159 118.035  92.652  0.00  0.00    -0.059 A 
ATOM     18  C16 UNL     1     118.088 116.520  90.973  0.00  0.00    +0.910 A 
ATOM     19  C17 UNL     1     116.973 117.066  91.641  0.00  0.00    -0.556 A 
ENDROOT
BRANCH  12  20
ATOM     20  O2  UNL     1     122.231 118.004  89.106  0.00  0.00    -1.002 OA
ATOM     21  H1  UNL     1     121.672 117.183  89.079  0.00  0.00    +0.646 HD
ENDBRANCH  12  20
BRANCH  18  22
ATOM     22  O3  UNL     1     117.936 115.648  89.898  0.00  0.00    -1.066 OA
ATOM     23  H2  UNL     1     118.208 115.915  88.959  0.00  0.00    +0.673 HD
ENDBRANCH  18  22
TORSDOF 2
ENDMDL
MODEL 2
REMARK VINA RESULT:    -7.298      2.657      4.938
REMARK INTER + INTRA:          -7.724
REMARK INTER:                  -7.724
REMARK INTRA:                   0.000
REMARK UNBOUND:                 0.000
REMARK  Name = Output/Trash/MorphineMOL_ligand_intermediary.pdb
REMARK  3 active torsions:
REMARK  status: ('A' for Active; 'I' for Inactive)
REMARK    1  A    between atoms: O2_2  and  C10_14
REMARK    2  A    between atoms: O3_3  and  C16_20
REMARK    3  A    between atoms: N1_4  and  C14_18
REMARK                            x       y       z     vdW  Elec       q    Type
REMARK                         _______ _______ _______ _____ _____    ______ ____
ROOT
ATOM      1  O1  UNL     1     122.354 118.385  94.689  0.00  0.00    -0.449 OA
ATOM      2  N1  UNL     1     118.406 116.487  91.791  0.00  0.00    -0.642 NA
ATOM      3  C1  UNL     1     120.365 117.557  93.654  0.00  0.00    +0.650 C 
ATOM      4  C2  UNL     1     118.963 118.179  93.474  0.00  0.00    -0.616 C 
ATOM      5  C3  UNL     1     118.540 117.953  91.997  0.00  0.00    +0.961 C 
ATOM      6  C4  UNL     1     121.061 117.864  95.033  0.00  0.00    +0.076 C 
ATOM      7  C5  UNL     1     120.294 116.039  93.360  0.00  0.00    -0.509 C 
ATOM      8  C6  UNL     1     121.296 118.223  92.701  0.00  0.00    -0.625 A 
ATOM      9  C7  UNL     1     119.520 118.637  90.973  0.00  0.00    -0.649 C 
ATOM     10  C8  UNL     1     119.673 115.748  91.979  0.00  0.00    +0.547 C 
ATOM     11  C9  UNL     1     120.962 118.686  91.430  0.00  0.00    +0.652 A 
ATOM     12  C10 UNL     1     120.270 118.891  95.887  0.00  0.00    +0.769 C 
ATOM     13  C11 UNL     1     118.978 119.629  93.904  0.00  0.00    +0.326 C 
ATOM     14  C12 UNL     1     122.426 118.635  93.334  0.00  0.00    +0.450 A 
ATOM     15  C13 UNL     1     119.628 119.964  95.029  0.00  0.00    -0.545 C 
ATOM     16  C14 UNL     1     117.755 116.128  90.521  0.00  0.00    +0.056 C 
ATOM     17  C15 UNL     1     121.945 119.391  90.709  0.00  0.00    -0.059 A 
ATOM     18  C16 UNL     1     123.424 119.335  92.656  0.00  0.00    +0.910 A 
ATOM     19  C17 UNL     1     123.191 119.681  91.309  0.00  0.00    -0.556 A 
ENDROOT
BRANCH  12  20
ATOM     20  O2  UNL     1     121.119 119.470  96.842  0.00  0.00    -1.002 OA
ATOM     21  H1  UNL     1     121.712 118.747  97.175  0.00  0.00    +0.646 HD
ENDBRANCH  12  20
BRANCH  18  22
ATOM     22  O3  UNL     1     124.596 119.705  93.309  0.00  0.00    -1.066 OA
ATOM     23  H2  UNL     1     124.901 120.671  93.338  0.00  0.00    +0.673 HD
ENDBRANCH  18  22
TORSDOF 2
ENDMDL
MODEL 3
REMARK VINA RESULT:    -7.023      2.782      4.997
REMARK INTER + INTRA:          -7.434
REMARK INTER:                  -7.434
REMARK INTRA:                   0.000
REMARK UNBOUND:                 0.000
REMARK  Name = Output/Trash/MorphineMOL_ligand_intermediary.pdb
REMARK  3 active torsions:
REMARK  status: ('A' for Active; 'I' for Inactive)
REMARK    1  A    between atoms: O2_2  and  C10_14
REMARK    2  A    between atoms: O3_3  and  C16_20
REMARK    3  A    between atoms: N1_4  and  C14_18
REMARK                            x       y       z     vdW  Elec       q    Type
REMARK                         _______ _______ _______ _____ _____    ______ ____
ROOT
ATOM      1  O1  UNL     1     122.608 117.094  94.440  0.00  0.00    -0.449 OA
ATOM      2  N1  UNL     1     118.469 115.921  91.428  0.00  0.00    -0.642 NA
ATOM      3  C1  UNL     1     120.542 116.753  93.289  0.00  0.00    +0.650 C 
ATOM      4  C2  UNL     1     119.531 117.745  92.673  0.00  0.00    -0.616 C 
ATOM      5  C3  UNL     1     119.169 117.221  91.257  0.00  0.00    +0.961 C 
ATOM      6  C4  UNL     1     121.193 117.217  94.646  0.00  0.00    +0.076 C 
ATOM      7  C5  UNL     1     119.885 115.357  93.404  0.00  0.00    -0.509 C 
ATOM      8  C6  UNL     1     121.734 116.690  92.398  0.00  0.00    -0.625 A 
ATOM      9  C7  UNL     1     120.419 117.133  90.304  0.00  0.00    -0.649 C 
ATOM     10  C8  UNL     1     119.310 114.878  92.055  0.00  0.00    +0.547 C 
ATOM     11  C9  UNL     1     121.717 116.803  91.009  0.00  0.00    +0.652 A 
ATOM     12  C10 UNL     1     120.822 118.678  95.019  0.00  0.00    +0.769 C 
ATOM     13  C11 UNL     1     120.098 119.147  92.694  0.00  0.00    +0.326 C 
ATOM     14  C12 UNL     1     122.881 116.848  93.111  0.00  0.00    +0.450 A 
ATOM     15  C13 UNL     1     120.739 119.570  93.795  0.00  0.00    -0.545 C 
ATOM     16  C14 UNL     1     117.830 115.430  90.197  0.00  0.00    +0.056 C 
ATOM     17  C15 UNL     1     122.954 116.831  90.338  0.00  0.00    -0.059 A 
ATOM     18  C16 UNL     1     124.126 116.879  92.483  0.00  0.00    +0.910 A 
ATOM     19  C17 UNL     1     124.159 116.829  91.074  0.00  0.00    -0.556 A 
ENDROOT
BRANCH  12  20
ATOM     20  O2  UNL     1     121.756 119.188  95.933  0.00  0.00    -1.002 OA
ATOM     21  H1  UNL     1     121.573 120.161  96.016  0.00  0.00    +0.646 HD
ENDBRANCH  12  20
BRANCH  18  22
ATOM     22  O3  UNL     1     125.293 116.991  93.234  0.00  0.00    -1.066 OA
ATOM     23  H2  UNL     1     125.860 117.831  93.207  0.00  0.00    +0.673 HD
ENDBRANCH  18  22
TORSDOF 2
ENDMDL
MODEL 4
REMARK VINA RESULT:    -6.943      2.403      4.337
REMARK INTER + INTRA:          -7.349
REMARK INTER:                  -7.349
REMARK INTRA:                   0.000
REMARK UNBOUND:                 0.000
REMARK  Name = Output/Trash/MorphineMOL_ligand_intermediary.pdb
REMARK  3 active torsions:
REMARK  status: ('A' for Active; 'I' for Inactive)
REMARK    1  A    between atoms: O2_2  and  C10_14
REMARK    2  A    between atoms: O3_3  and  C16_20
REMARK    3  A    between atoms: N1_4  and  C14_18
REMARK                            x       y       z     vdW  Elec       q    Type
REMARK                         _______ _______ _______ _____ _____    ______ ____
ROOT
ATOM      1  O1  UNL     1     119.262 119.322  93.943  0.00  0.00    -0.449 OA
ATOM      2  N1  UNL     1     123.213 118.213  90.666  0.00  0.00    -0.642 NA
ATOM      3  C1  UNL     1     121.264 118.846  92.728  0.00  0.00    +0.650 C 
ATOM      4  C2  UNL     1     122.347 117.760  92.913  0.00  0.00    -0.616 C 
ATOM      5  C3  UNL     1     122.629 117.143  91.516  0.00  0.00    +0.961 C 
ATOM      6  C4  UNL     1     120.686 119.449  94.064  0.00  0.00    +0.076 C 
ATOM      7  C5  UNL     1     121.794 119.942  91.773  0.00  0.00    -0.509 C 
ATOM      8  C6  UNL     1     120.052 118.201  92.149  0.00  0.00    -0.625 A 
ATOM      9  C7  UNL     1     121.356 116.470  90.881  0.00  0.00    -0.649 C 
ATOM     10  C8  UNL     1     122.296 119.351  90.440  0.00  0.00    +0.547 C 
ATOM     11  C9  UNL     1     120.050 117.138  91.248  0.00  0.00    +0.652 A 
ATOM     12  C10 UNL     1     121.195 118.703  95.326  0.00  0.00    +0.769 C 
ATOM     13  C11 UNL     1     121.908 116.761  93.960  0.00  0.00    +0.326 C 
ATOM     14  C12 UNL     1     118.939 118.540  92.853  0.00  0.00    +0.450 A 
ATOM     15  C13 UNL     1     121.332 117.212  95.085  0.00  0.00    -0.545 C 
ATOM     16  C14 UNL     1     123.779 117.718  89.401  0.00  0.00    +0.056 C 
ATOM     17  C15 UNL     1     118.806 116.583  90.892  0.00  0.00    -0.059 A 
ATOM     18  C16 UNL     1     117.689 118.013  92.531  0.00  0.00    +0.910 A 
ATOM     19  C17 UNL     1     117.621 117.048  91.505  0.00  0.00    -0.556 A 
ENDROOT
BRANCH  12  20
ATOM     20  O2  UNL     1     120.331 118.947  96.404  0.00  0.00    -1.002 OA
ATOM     21  H1  UNL     1     120.555 118.283  97.107  0.00  0.00    +0.646 HD
ENDBRANCH  12  20
BRANCH  18  22
ATOM     22  O3  UNL     1     116.553 118.410  93.231  0.00  0.00    -1.066 OA
ATOM     23  H2  UNL     1     116.622 118.931  94.098  0.00  0.00    +0.673 HD
ENDBRANCH  18  22
TORSDOF 2
ENDMDL
MODEL 5
REMARK VINA RESULT:    -6.782      6.239      8.692
REMARK INTER + INTRA:          -7.178
REMARK INTER:                  -7.178
REMARK INTRA:                   0.000
REMARK UNBOUND:                 0.000
REMARK  Name = Output/Trash/MorphineMOL_ligand_intermediary.pdb
REMARK  3 active torsions:
REMARK  status: ('A' for Active; 'I' for Inactive)
REMARK    1  A    between atoms: O2_2  and  C10_14
REMARK    2  A    between atoms: O3_3  and  C16_20
REMARK    3  A    between atoms: N1_4  and  C14_18
REMARK                            x       y       z     vdW  Elec       q    Type
REMARK                         _______ _______ _______ _____ _____    ______ ____
ROOT
ATOM      1  O1  UNL     1     129.358 120.721  90.462  0.00  0.00    -0.449 OA
ATOM      2  N1  UNL     1     124.633 118.427  90.505  0.00  0.00    -0.642 NA
ATOM      3  C1  UNL     1     127.371 119.399  90.603  0.00  0.00    +0.650 C 
ATOM      4  C2  UNL     1     126.709 118.659  91.786  0.00  0.00    -0.616 C 
ATOM      5  C3  UNL     1     125.194 118.999  91.757  0.00  0.00    +0.961 C 
ATOM      6  C4  UNL     1     128.945 119.350  90.580  0.00  0.00    +0.076 C 
ATOM      7  C5  UNL     1     126.753 118.901  89.275  0.00  0.00    -0.509 C 
ATOM      8  C6  UNL     1     127.125 120.859  90.770  0.00  0.00    -0.625 A 
ATOM      9  C7  UNL     1     124.913 120.539  91.917  0.00  0.00    -0.649 C 
ATOM     10  C8  UNL     1     125.214 119.014  89.278  0.00  0.00    +0.547 C 
ATOM     11  C9  UNL     1     125.979 121.431  91.319  0.00  0.00    +0.652 A 
ATOM     12  C10 UNL     1     129.542 118.711  91.862  0.00  0.00    +0.769 C 
ATOM     13  C11 UNL     1     127.405 119.018  93.079  0.00  0.00    +0.326 C 
ATOM     14  C12 UNL     1     128.280 121.564  90.638  0.00  0.00    +0.450 A 
ATOM     15  C13 UNL     1     128.745 119.076  93.100  0.00  0.00    -0.545 C 
ATOM     16  C14 UNL     1     123.162 118.434  90.461  0.00  0.00    +0.056 C 
ATOM     17  C15 UNL     1     125.966 122.828  91.500  0.00  0.00    -0.059 A 
ATOM     18  C16 UNL     1     128.308 122.947  90.808  0.00  0.00    +0.910 A 
ATOM     19  C17 UNL     1     127.118 123.590  91.207  0.00  0.00    -0.556 A 
ENDROOT
BRANCH  12  20
ATOM     20  O2  UNL     1     130.882 119.102  92.010  0.00  0.00    -1.002 OA
ATOM     21  H1  UNL     1     130.918 120.077  91.823  0.00  0.00    +0.646 HD
ENDBRANCH  12  20
BRANCH  18  22
ATOM     22  O3  UNL     1     129.490 123.659  90.620  0.00  0.00    -1.066 OA
ATOM     23  H2  UNL     1     130.395 123.209  90.701  0.00  0.00    +0.673 HD
ENDBRANCH  18  22
TORSDOF 2
ENDMDL
MODEL 6
REMARK VINA RESULT:    -6.661      2.914      4.810
REMARK INTER + INTRA:          -7.051
REMARK INTER:                  -7.051
REMARK INTRA:                   0.000
REMARK UNBOUND:                 0.000
REMARK  Name = Output/Trash/MorphineMOL_ligand_intermediary.pdb
REMARK  3 active torsions:
REMARK  status: ('A' for Active; 'I' for Inactive)
REMARK    1  A    between atoms: O2_2  and  C10_14
REMARK    2  A    between atoms: O3_3  and  C16_20
REMARK    3  A    between atoms: N1_4  and  C14_18
REMARK                            x       y       z     vdW  Elec       q    Type
REMARK                         _______ _______ _______ _____ _____    ______ ____
ROOT
ATOM      1  O1  UNL     1     121.503 118.045  95.417  0.00  0.00    -0.449 OA
ATOM      2  N1  UNL     1     123.218 119.233  90.598  0.00  0.00    -0.642 NA
ATOM      3  C1  UNL     1     122.295 118.245  93.172  0.00  0.00    +0.650 C 
ATOM      4  C2  UNL     1     121.731 117.725  91.831  0.00  0.00    -0.616 C 
ATOM      5  C3  UNL     1     121.786 118.900  90.817  0.00  0.00    +0.961 C 
ATOM      6  C4  UNL     1     122.133 117.262  94.392  0.00  0.00    +0.076 C 
ATOM      7  C5  UNL     1     123.763 118.691  92.972  0.00  0.00    -0.509 C 
ATOM      8  C6  UNL     1     121.462 119.399  93.611  0.00  0.00    -0.625 A 
ATOM      9  C7  UNL     1     120.923 120.135  91.271  0.00  0.00    -0.649 C 
ATOM     10  C8  UNL     1     123.906 119.706  91.819  0.00  0.00    +0.547 C 
ATOM     11  C9  UNL     1     120.856 120.330  92.770  0.00  0.00    +0.652 A 
ATOM     12  C10 UNL     1     121.270 116.019  94.048  0.00  0.00    +0.769 C 
ATOM     13  C11 UNL     1     120.351 117.143  92.038  0.00  0.00    +0.326 C 
ATOM     14  C12 UNL     1     121.075 119.253  94.906  0.00  0.00    +0.450 A 
ATOM     15  C13 UNL     1     120.130 116.365  93.109  0.00  0.00    -0.545 C 
ATOM     16  C14 UNL     1     123.444 120.145  89.465  0.00  0.00    +0.056 C 
ATOM     17  C15 UNL     1     120.012 121.292  93.356  0.00  0.00    -0.059 A 
ATOM     18  C16 UNL     1     120.241 120.184  95.524  0.00  0.00    +0.910 A 
ATOM     19  C17 UNL     1     119.736 121.242  94.740  0.00  0.00    -0.556 A 
ENDROOT
BRANCH  12  20
ATOM     20  O2  UNL     1     120.774 115.442  95.227  0.00  0.00    -1.002 OA
ATOM     21  H1  UNL     1     119.901 115.027  94.998  0.00  0.00    +0.646 HD
ENDBRANCH  12  20
BRANCH  18  22
ATOM     22  O3  UNL     1     119.896 120.044  96.865  0.00  0.00    -1.066 OA
ATOM     23  H2  UNL     1     119.686 119.137  97.264  0.00  0.00    +0.673 HD
ENDBRANCH  18  22
TORSDOF 2
ENDMDL
MODEL 7
REMARK VINA RESULT:    -6.445      1.615      4.099
REMARK INTER + INTRA:          -6.822
REMARK INTER:                  -6.822
REMARK INTRA:                   0.000
REMARK UNBOUND:                 0.000
REMARK  Name = Output/Trash/MorphineMOL_ligand_intermediary.pdb
REMARK  3 active torsions:
REMARK  status: ('A' for Active; 'I' for Inactive)
REMARK    1  A    between atoms: O2_2  and  C10_14
REMARK    2  A    between atoms: O3_3  and  C16_20
REMARK    3  A    between atoms: N1_4  and  C14_18
REMARK                            x       y       z     vdW  Elec       q    Type
REMARK                         _______ _______ _______ _____ _____    ______ ____
ROOT
ATOM      1  O1  UNL     1     121.027 116.838  89.750  0.00  0.00    -0.449 OA
ATOM      2  N1  UNL     1     120.320 118.764  94.585  0.00  0.00    -0.642 NA
ATOM      3  C1  UNL     1     120.383 117.595  91.923  0.00  0.00    +0.650 C 
ATOM      4  C2  UNL     1     119.813 116.845  93.147  0.00  0.00    -0.616 C 
ATOM      5  C3  UNL     1     120.609 117.318  94.394  0.00  0.00    +0.961 C 
ATOM      6  C4  UNL     1     119.848 117.100  90.527  0.00  0.00    +0.076 C 
ATOM      7  C5  UNL     1     120.187 119.117  92.117  0.00  0.00    -0.509 C 
ATOM      8  C6  UNL     1     121.833 117.273  91.813  0.00  0.00    -0.625 A 
ATOM      9  C7  UNL     1     122.147 117.000  94.290  0.00  0.00    -0.649 C 
ATOM     10  C8  UNL     1     120.773 119.608  93.457  0.00  0.00    +0.547 C 
ATOM     11  C9  UNL     1     122.698 117.047  92.882  0.00  0.00    +0.652 A 
ATOM     12  C10 UNL     1     118.976 115.821  90.640  0.00  0.00    +0.769 C 
ATOM     13  C11 UNL     1     119.856 115.352  92.909  0.00  0.00    +0.326 C 
ATOM     14  C12 UNL     1     122.151 116.890  90.548  0.00  0.00    +0.450 A 
ATOM     15  C13 UNL     1     119.492 114.877  91.708  0.00  0.00    -0.545 C 
ATOM     16  C14 UNL     1     120.788 119.293  95.876  0.00  0.00    +0.056 C 
ATOM     17  C15 UNL     1     124.015 116.645  92.587  0.00  0.00    -0.059 A 
ATOM     18  C16 UNL     1     123.443 116.486  90.215  0.00  0.00    +0.910 A 
ATOM     19  C17 UNL     1     124.398 116.404  91.249  0.00  0.00    -0.556 A 
ENDROOT
BRANCH  12  20
ATOM     20  O2  UNL     1     118.920 115.171  89.397  0.00  0.00    -1.002 OA
ATOM     21  H1  UNL     1     119.794 114.715  89.274  0.00  0.00    +0.646 HD
ENDBRANCH  12  20
BRANCH  18  22
ATOM     22  O3  UNL     1     123.762 116.146  88.903  0.00  0.00    -1.066 OA
ATOM     23  H2  UNL     1     123.225 115.453  88.393  0.00  0.00    +0.673 HD
ENDBRANCH  18  22
TORSDOF 2
ENDMDL
MODEL 8
REMARK VINA RESULT:    -6.410      7.082      9.641
REMARK INTER + INTRA:          -6.785
REMARK INTER:                  -6.785
REMARK INTRA:                   0.000
REMARK UNBOUND:                 0.000
REMARK  Name = Output/Trash/MorphineMOL_ligand_intermediary.pdb
REMARK  3 active torsions:
REMARK  status: ('A' for Active; 'I' for Inactive)
REMARK    1  A    between atoms: O2_2  and  C10_14
REMARK    2  A    between atoms: O3_3  and  C16_20
REMARK    3  A    between atoms: N1_4  and  C14_18
REMARK                            x       y       z     vdW  Elec       q    Type
REMARK                         _______ _______ _______ _____ _____    ______ ____
ROOT
ATOM      1  O1  UNL     1     129.273 122.459  91.397  0.00  0.00    -0.449 OA
ATOM      2  N1  UNL     1     125.040 119.923  89.598  0.00  0.00    -0.642 NA
ATOM      3  C1  UNL     1     127.352 121.532  90.319  0.00  0.00    +0.650 C 
ATOM      4  C2  UNL     1     127.141 120.972  88.895  0.00  0.00    -0.616 C 
ATOM      5  C3  UNL     1     126.383 119.623  89.034  0.00  0.00    +0.961 C 
ATOM      6  C4  UNL     1     128.288 122.796  90.409  0.00  0.00    +0.076 C 
ATOM      7  C5  UNL     1     125.976 121.775  90.984  0.00  0.00    -0.509 C 
ATOM      8  C6  UNL     1     128.133 120.533  91.101  0.00  0.00    -0.625 A 
ATOM      9  C7  UNL     1     127.185 118.558  89.871  0.00  0.00    -0.649 C 
ATOM     10  C8  UNL     1     125.090 120.513  90.953  0.00  0.00    +0.547 C 
ATOM     11  C9  UNL     1     128.045 119.149  90.967  0.00  0.00    +0.652 A 
ATOM     12  C10 UNL     1     128.967 123.134  89.055  0.00  0.00    +0.769 C 
ATOM     13  C11 UNL     1     128.465 120.872  88.173  0.00  0.00    +0.326 C 
ATOM     14  C12 UNL     1     129.187 121.122  91.726  0.00  0.00    +0.450 A 
ATOM     15  C13 UNL     1     129.340 121.884  88.282  0.00  0.00    -0.545 C 
ATOM     16  C14 UNL     1     124.110 118.784  89.540  0.00  0.00    +0.056 C 
ATOM     17  C15 UNL     1     128.941 118.359  91.713  0.00  0.00    -0.059 A 
ATOM     18  C16 UNL     1     130.095 120.375  92.476  0.00  0.00    +0.910 A 
ATOM     19  C17 UNL     1     129.941 118.974  92.499  0.00  0.00    -0.556 A 
ENDROOT
BRANCH  12  20
ATOM     20  O2  UNL     1     130.102 123.929  89.278  0.00  0.00    -1.002 OA
ATOM     21  H1  UNL     1     130.878 123.428  88.912  0.00  0.00    +0.646 HD
ENDBRANCH  12  20
BRANCH  18  22
ATOM     22  O3  UNL     1     131.140 121.003  93.150  0.00  0.00    -1.066 OA
ATOM     23  H2  UNL     1     131.498 120.636  94.024  0.00  0.00    +0.673 HD
ENDBRANCH  18  22
TORSDOF 2
ENDMDL
MODEL 9
REMARK VINA RESULT:    -6.318      7.648      9.614
REMARK INTER + INTRA:          -6.687
REMARK INTER:                  -6.687
REMARK INTRA:                   0.000
REMARK UNBOUND:                 0.000
REMARK  Name = Output/Trash/MorphineMOL_ligand_intermediary.pdb
REMARK  3 active torsions:
REMARK  status: ('A' for Active; 'I' for Inactive)
REMARK    1  A    between atoms: O2_2  and  C10_14
REMARK    2  A    between atoms: O3_3  and  C16_20
REMARK    3  A    between atoms: N1_4  and  C14_18
REMARK                            x       y       z     vdW  Elec       q    Type
REMARK                         _______ _______ _______ _____ _____    ______ ____
ROOT
ATOM      1  O1  UNL     1     125.976 121.300  91.350  0.00  0.00    -0.449 OA
ATOM      2  N1  UNL     1     128.658 120.338  86.938  0.00  0.00    -0.642 NA
ATOM      3  C1  UNL     1     127.201 121.204  89.300  0.00  0.00    +0.650 C 
ATOM      4  C2  UNL     1     128.545 121.836  88.874  0.00  0.00    -0.616 C 
ATOM      5  C3  UNL     1     129.379 120.727  88.177  0.00  0.00    +0.961 C 
ATOM      6  C4  UNL     1     126.293 122.114  90.210  0.00  0.00    +0.076 C 
ATOM      7  C5  UNL     1     126.450 120.699  88.045  0.00  0.00    -0.509 C 
ATOM      8  C6  UNL     1     127.492 120.067  90.218  0.00  0.00    -0.625 A 
ATOM      9  C7  UNL     1     129.685 119.510  89.127  0.00  0.00    -0.649 C 
ATOM     10  C8  UNL     1     127.322 119.754  87.193  0.00  0.00    +0.547 C 
ATOM     11  C9  UNL     1     128.598 119.223  90.140  0.00  0.00    +0.652 A 
ATOM     12  C10 UNL     1     127.007 123.418  90.655  0.00  0.00    +0.769 C 
ATOM     13  C11 UNL     1     129.222 122.472  90.066  0.00  0.00    +0.326 C 
ATOM     14  C12 UNL     1     126.738 120.150  91.347  0.00  0.00    +0.450 A 
ATOM     15  C13 UNL     1     128.482 123.190  90.925  0.00  0.00    -0.545 C 
ATOM     16  C14 UNL     1     129.453 119.490  86.035  0.00  0.00    +0.056 C 
ATOM     17  C15 UNL     1     128.768 118.269  91.162  0.00  0.00    -0.059 A 
ATOM     18  C16 UNL     1     126.875 119.224  92.380  0.00  0.00    +0.910 A 
ATOM     19  C17 UNL     1     127.883 118.244  92.262  0.00  0.00    -0.556 A 
ENDROOT
BRANCH  12  20
ATOM     20  O2  UNL     1     126.377 123.942  91.794  0.00  0.00    -1.002 OA
ATOM     21  H1  UNL     1     125.748 123.246  92.119  0.00  0.00    +0.646 HD
ENDBRANCH  12  20
BRANCH  18  22
ATOM     22  O3  UNL     1     126.059 119.295  93.506  0.00  0.00    -1.066 OA
ATOM     23  H2  UNL     1     126.342 119.812  94.330  0.00  0.00    +0.673 HD
ENDBRANCH  18  22
TORSDOF 2
ENDMDL
