MODEL 1
REMARK VINA RESULT:    -8.406      0.000      0.000
REMARK INTER + INTRA:         -11.872
REMARK INTER:                 -11.355
REMARK INTRA:                  -0.518
REMARK UNBOUND:                -0.518
REMARK  Name = Output/Trash/FentanylSDF_ligand_intermediary.pdb
REMARK  7 active torsions:
REMARK  status: ('A' for Active; 'I' for Inactive)
REMARK    1  A    between atoms: N1_2  and  C6_9
REMARK    2  A    between atoms: N2_3  and  C1_4
REMARK    3  A    between atoms: N2_3  and  C8_11
REMARK    4  A    between atoms: C6_9  and  C7_10
REMARK    5  A    between atoms: C7_10  and  C10_13
REMARK    6  A    between atoms: C9_12  and  C11_14
REMARK    7  A    between atoms: C11_14  and  C14_17
REMARK                            x       y       z     vdW  Elec       q    Type
REMARK                         _______ _______ _______ _____ _____    ______ ____
ROOT
ATOM      1  N1  UNL     1     122.480 154.231 138.991  0.00  0.00    -0.752 NA
ATOM      2  C1  UNL     1     120.618 152.060 138.445  0.00  0.00    +1.654 C 
ATOM      3  C2  UNL     1     121.657 151.975 139.575  0.00  0.00    -0.765 C 
ATOM      4  C3  UNL     1     120.283 153.525 138.112  0.00  0.00    -0.856 C 
ATOM      5  C4  UNL     1     122.883 152.830 139.238  0.00  0.00    +0.580 C 
ATOM      6  C5  UNL     1     121.570 154.307 137.828  0.00  0.00    +0.623 C 
ENDROOT
BRANCH   2   8
ATOM      7  O1  UNL     1     118.661 150.973 136.555  0.00  0.00    -0.894 OA
ATOM      8  N2  UNL     1     119.405 151.278 138.765  0.00  0.00    -1.935 N 
ATOM      9  C9  UNL     1     118.651 150.573 137.750  0.00  0.00    +2.239 C 
BRANCH   8  10
ATOM     10  C8  UNL     1     118.933 151.273 140.124  0.00  0.00    +1.669 A 
ATOM     11  C12 UNL     1     119.268 150.217 140.984  0.00  0.00    -0.900 A 
ATOM     12  C13 UNL     1     118.127 152.322 140.597  0.00  0.00    -0.792 A 
ATOM     13  C17 UNL     1     118.807 150.213 142.304  0.00  0.00    +0.501 A 
ATOM     14  C18 UNL     1     117.668 152.315 141.917  0.00  0.00    +0.457 A 
ATOM     15  C19 UNL     1     118.007 151.261 142.771  0.00  0.00    -0.418 A 
ENDBRANCH   8  10
BRANCH   9  16
ATOM     16  C11 UNL     1     117.897 149.313 138.078  0.00  0.00    -0.803 C 
ATOM     17  C14 UNL     1     118.455 148.135 137.287  0.00  0.00    +0.167 C 
ENDBRANCH   9  16
ENDBRANCH   2   8
BRANCH   1  18
ATOM     18  C6  UNL     1     123.668 155.091 138.795  0.00  0.00    +0.434 C 
BRANCH  18  19
ATOM     19  C7  UNL     1     124.873 154.555 139.581  0.00  0.00    -0.555 C 
BRANCH  19  20
ATOM     20  C10 UNL     1     124.852 155.036 141.009  0.00  0.00    +0.852 A 
ATOM     21  C15 UNL     1     123.723 155.699 141.517  0.00  0.00    -0.403 A 
ATOM     22  C16 UNL     1     125.988 154.885 141.825  0.00  0.00    -0.338 A 
ATOM     23  C20 UNL     1     123.723 156.187 142.829  0.00  0.00    +0.215 A 
ATOM     24  C21 UNL     1     125.983 155.375 143.134  0.00  0.00    +0.195 A 
ATOM     25  C22 UNL     1     124.852 156.023 143.636  0.00  0.00    -0.176 A 
ENDBRANCH  19  20
ENDBRANCH  18  19
ENDBRANCH   1  18
TORSDOF 6
ENDMDL
MODEL 2
REMARK VINA RESULT:    -7.794     20.325     23.510
REMARK INTER + INTRA:         -11.045
REMARK INTER:                 -10.391
REMARK INTRA:                  -0.654
REMARK UNBOUND:                -0.518
REMARK  Name = Output/Trash/FentanylSDF_ligand_intermediary.pdb
REMARK  7 active torsions:
REMARK  status: ('A' for Active; 'I' for Inactive)
REMARK    1  A    between atoms: N1_2  and  C6_9
REMARK    2  A    between atoms: N2_3  and  C1_4
REMARK    3  A    between atoms: N2_3  and  C8_11
REMARK    4  A    between atoms: C6_9  and  C7_10
REMARK    5  A    between atoms: C7_10  and  C10_13
REMARK    6  A    between atoms: C9_12  and  C11_14
REMARK    7  A    between atoms: C11_14  and  C14_17
REMARK                            x       y       z     vdW  Elec       q    Type
REMARK                         _______ _______ _______ _____ _____    ______ ____
ROOT
ATOM      1  N1  UNL     1     131.449 139.665 123.414  0.00  0.00    -0.752 NA
ATOM      2  C1  UNL     1     131.272 142.333 124.567  0.00  0.00    +1.654 C 
ATOM      3  C2  UNL     1     130.019 141.533 124.173  0.00  0.00    -0.765 C 
ATOM      4  C3  UNL     1     132.458 141.396 124.858  0.00  0.00    -0.856 C 
ATOM      5  C4  UNL     1     130.342 140.566 123.029  0.00  0.00    +0.580 C 
ATOM      6  C5  UNL     1     132.679 140.445 123.677  0.00  0.00    +0.623 C 
ENDROOT
BRANCH   2   8
ATOM      7  O1  UNL     1     130.423 141.593 127.272  0.00  0.00    -0.894 OA
ATOM      8  N2  UNL     1     131.000 143.243 125.699  0.00  0.00    -1.935 N 
ATOM      9  C9  UNL     1     130.838 142.763 127.054  0.00  0.00    +2.239 C 
BRANCH   8  10
ATOM     10  C8  UNL     1     130.832 144.645 125.424  0.00  0.00    +1.669 A 
ATOM     11  C12 UNL     1     129.574 145.249 125.574  0.00  0.00    -0.900 A 
ATOM     12  C13 UNL     1     131.923 145.418 124.996  0.00  0.00    -0.792 A 
ATOM     13  C17 UNL     1     129.412 146.611 125.305  0.00  0.00    +0.501 A 
ATOM     14  C18 UNL     1     131.758 146.781 124.728  0.00  0.00    +0.457 A 
ATOM     15  C19 UNL     1     130.503 147.377 124.883  0.00  0.00    -0.418 A 
ENDBRANCH   8  10
BRANCH   9  16
ATOM     16  C11 UNL     1     131.225 143.616 128.232  0.00  0.00    -0.803 C 
ATOM     17  C14 UNL     1     131.892 142.769 129.310  0.00  0.00    +0.167 C 
ENDBRANCH   9  16
ENDBRANCH   2   8
BRANCH   1  18
ATOM     18  C6  UNL     1     131.681 138.644 122.368  0.00  0.00    +0.434 C 
BRANCH  18  19
ATOM     19  C7  UNL     1     130.363 137.983 121.941  0.00  0.00    -0.555 C 
BRANCH  19  20
ATOM     20  C10 UNL     1     130.610 136.677 121.229  0.00  0.00    +0.852 A 
ATOM     21  C15 UNL     1     131.678 135.851 121.615  0.00  0.00    -0.403 A 
ATOM     22  C16 UNL     1     129.816 136.308 120.129  0.00  0.00    -0.338 A 
ATOM     23  C20 UNL     1     131.935 134.662 120.923  0.00  0.00    +0.215 A 
ATOM     24  C21 UNL     1     130.078 135.121 119.439  0.00  0.00    +0.195 A 
ATOM     25  C22 UNL     1     131.134 134.298 119.837  0.00  0.00    -0.176 A 
ENDBRANCH  19  20
ENDBRANCH  18  19
ENDBRANCH   1  18
TORSDOF 6
ENDMDL
MODEL 3
REMARK VINA RESULT:    -7.703      2.112      3.596
REMARK INTER + INTRA:         -10.923
REMARK INTER:                 -10.101
REMARK INTRA:                  -0.822
REMARK UNBOUND:                -0.518
REMARK  Name = Output/Trash/FentanylSDF_ligand_intermediary.pdb
REMARK  7 active torsions:
REMARK  status: ('A' for Active; 'I' for Inactive)
REMARK    1  A    between atoms: N1_2  and  C6_9
REMARK    2  A    between atoms: N2_3  and  C1_4
REMARK    3  A    between atoms: N2_3  and  C8_11
REMARK    4  A    between atoms: C6_9  and  C7_10
REMARK    5  A    between atoms: C7_10  and  C10_13
REMARK    6  A    between atoms: C9_12  and  C11_14
REMARK    7  A    between atoms: C11_14  and  C14_17
REMARK                            x       y       z     vdW  Elec       q    Type
REMARK                         _______ _______ _______ _____ _____    ______ ____
ROOT
ATOM      1  N1  UNL     1     122.400 154.451 141.258  0.00  0.00    -0.752 NA
ATOM      2  C1  UNL     1     120.170 152.643 140.770  0.00  0.00    +1.654 C 
ATOM      3  C2  UNL     1     121.606 152.295 140.345  0.00  0.00    -0.765 C 
ATOM      4  C3  UNL     1     120.167 153.645 141.938  0.00  0.00    -0.856 C 
ATOM      5  C4  UNL     1     122.404 153.574 140.068  0.00  0.00    +0.580 C 
ATOM      6  C5  UNL     1     121.019 154.869 141.583  0.00  0.00    +0.623 C 
ENDROOT
BRANCH   2   8
ATOM      7  O1  UNL     1     120.432 150.934 143.135  0.00  0.00    -0.894 OA
ATOM      8  N2  UNL     1     119.390 151.429 141.086  0.00  0.00    -1.935 N 
ATOM      9  C9  UNL     1     119.421 150.809 142.394  0.00  0.00    +2.239 C 
BRANCH   8  10
ATOM     10  C8  UNL     1     118.625 150.814 140.033  0.00  0.00    +1.669 A 
ATOM     11  C12 UNL     1     119.214 149.847 139.204  0.00  0.00    -0.900 A 
ATOM     12  C13 UNL     1     117.287 151.182 139.823  0.00  0.00    -0.792 A 
ATOM     13  C17 UNL     1     118.470 149.251 138.181  0.00  0.00    +0.501 A 
ATOM     14  C18 UNL     1     116.546 150.585 138.799  0.00  0.00    +0.457 A 
ATOM     15  C19 UNL     1     117.137 149.620 137.979  0.00  0.00    -0.418 A 
ENDBRANCH   8  10
BRANCH   9  16
ATOM     16  C11 UNL     1     118.227 150.065 142.929  0.00  0.00    -0.803 C 
ATOM     17  C14 UNL     1     117.292 151.015 143.669  0.00  0.00    +0.167 C 
ENDBRANCH   9  16
ENDBRANCH   2   8
BRANCH   1  18
ATOM     18  C6  UNL     1     123.276 155.625 141.046  0.00  0.00    +0.434 C 
BRANCH  18  19
ATOM     19  C7  UNL     1     123.342 156.499 142.307  0.00  0.00    -0.555 C 
BRANCH  19  20
ATOM     20  C10 UNL     1     124.287 155.917 143.327  0.00  0.00    +0.852 A 
ATOM     21  C15 UNL     1     125.569 155.490 142.943  0.00  0.00    -0.403 A 
ATOM     22  C16 UNL     1     123.870 155.733 144.657  0.00  0.00    -0.338 A 
ATOM     23  C20 UNL     1     126.428 154.907 143.881  0.00  0.00    +0.215 A 
ATOM     24  C21 UNL     1     124.731 155.149 145.590  0.00  0.00    +0.195 A 
ATOM     25  C22 UNL     1     126.008 154.738 145.203  0.00  0.00    -0.176 A 
ENDBRANCH  19  20
ENDBRANCH  18  19
ENDBRANCH   1  18
TORSDOF 6
ENDMDL
MODEL 4
REMARK VINA RESULT:    -7.626     19.620     22.619
REMARK INTER + INTRA:         -10.818
REMARK INTER:                  -9.943
REMARK INTRA:                  -0.875
REMARK UNBOUND:                -0.518
REMARK  Name = Output/Trash/FentanylSDF_ligand_intermediary.pdb
REMARK  7 active torsions:
REMARK  status: ('A' for Active; 'I' for Inactive)
REMARK    1  A    between atoms: N1_2  and  C6_9
REMARK    2  A    between atoms: N2_3  and  C1_4
REMARK    3  A    between atoms: N2_3  and  C8_11
REMARK    4  A    between atoms: C6_9  and  C7_10
REMARK    5  A    between atoms: C7_10  and  C10_13
REMARK    6  A    between atoms: C9_12  and  C11_14
REMARK    7  A    between atoms: C11_14  and  C14_17
REMARK                            x       y       z     vdW  Elec       q    Type
REMARK                         _______ _______ _______ _____ _____    ______ ____
ROOT
ATOM      1  N1  UNL     1     130.923 140.951 123.571  0.00  0.00    -0.752 NA
ATOM      2  C1  UNL     1     130.600 142.630 125.928  0.00  0.00    +1.654 C 
ATOM      3  C2  UNL     1     131.883 141.821 125.676  0.00  0.00    -0.765 C 
ATOM      4  C3  UNL     1     129.867 142.928 124.608  0.00  0.00    -0.856 C 
ATOM      5  C4  UNL     1     131.570 140.572 124.845  0.00  0.00    +0.580 C 
ATOM      6  C5  UNL     1     129.633 141.627 123.831  0.00  0.00    +0.623 C 
ENDROOT
BRANCH   2   8
ATOM      7  O1  UNL     1     131.131 142.856 128.800  0.00  0.00    -0.894 OA
ATOM      8  N2  UNL     1     130.880 143.864 126.691  0.00  0.00    -1.935 N 
ATOM      9  C9  UNL     1     131.380 143.837 128.049  0.00  0.00    +2.239 C 
BRANCH   8  10
ATOM     10  C8  UNL     1     130.585 145.131 126.075  0.00  0.00    +1.669 A 
ATOM     11  C12 UNL     1     131.469 145.683 125.135  0.00  0.00    -0.900 A 
ATOM     12  C13 UNL     1     129.414 145.828 126.415  0.00  0.00    -0.792 A 
ATOM     13  C17 UNL     1     131.181 146.914 124.539  0.00  0.00    +0.501 A 
ATOM     14  C18 UNL     1     129.130 147.059 125.817  0.00  0.00    +0.457 A 
ATOM     15  C19 UNL     1     130.013 147.602 124.879  0.00  0.00    -0.418 A 
ENDBRANCH   8  10
BRANCH   9  16
ATOM     16  C11 UNL     1     132.264 144.936 128.574  0.00  0.00    -0.803 C 
ATOM     17  C14 UNL     1     133.703 144.730 128.114  0.00  0.00    +0.167 C 
ENDBRANCH   9  16
ENDBRANCH   2   8
BRANCH   1  18
ATOM     18  C6  UNL     1     130.736 139.765 122.705  0.00  0.00    +0.434 C 
BRANCH  18  19
ATOM     19  C7  UNL     1     132.066 139.031 122.481  0.00  0.00    -0.555 C 
BRANCH  19  20
ATOM     20  C10 UNL     1     131.838 137.620 122.002  0.00  0.00    +0.852 A 
ATOM     21  C15 UNL     1     130.534 137.153 121.767  0.00  0.00    -0.403 A 
ATOM     22  C16 UNL     1     132.923 136.739 121.851  0.00  0.00    -0.338 A 
ATOM     23  C20 UNL     1     130.322 135.829 121.368  0.00  0.00    +0.215 A 
ATOM     24  C21 UNL     1     132.706 135.417 121.454  0.00  0.00    +0.195 A 
ATOM     25  C22 UNL     1     131.407 134.962 121.211  0.00  0.00    -0.176 A 
ENDBRANCH  19  20
ENDBRANCH  18  19
ENDBRANCH   1  18
TORSDOF 6
ENDMDL
MODEL 5
REMARK VINA RESULT:    -7.566      3.632      6.461
REMARK INTER + INTRA:         -10.737
REMARK INTER:                  -9.574
REMARK INTRA:                  -1.163
REMARK UNBOUND:                -0.518
REMARK  Name = Output/Trash/FentanylSDF_ligand_intermediary.pdb
REMARK  7 active torsions:
REMARK  status: ('A' for Active; 'I' for Inactive)
REMARK    1  A    between atoms: N1_2  and  C6_9
REMARK    2  A    between atoms: N2_3  and  C1_4
REMARK    3  A    between atoms: N2_3  and  C8_11
REMARK    4  A    between atoms: C6_9  and  C7_10
REMARK    5  A    between atoms: C7_10  and  C10_13
REMARK    6  A    between atoms: C9_12  and  C11_14
REMARK    7  A    between atoms: C11_14  and  C14_17
REMARK                            x       y       z     vdW  Elec       q    Type
REMARK                         _______ _______ _______ _____ _____    ______ ____
ROOT
ATOM      1  N1  UNL     1     119.553 150.639 145.030  0.00  0.00    -0.752 NA
ATOM      2  C1  UNL     1     119.568 150.728 142.120  0.00  0.00    +1.654 C 
ATOM      3  C2  UNL     1     118.346 150.236 142.912  0.00  0.00    -0.765 C 
ATOM      4  C3  UNL     1     120.430 151.680 142.969  0.00  0.00    -0.856 C 
ATOM      5  C4  UNL     1     118.785 149.643 144.255  0.00  0.00    +0.580 C 
ATOM      6  C5  UNL     1     120.786 151.016 144.304  0.00  0.00    +0.623 C 
ENDROOT
BRANCH   2   8
ATOM      7  O1  UNL     1     119.580 149.477 139.471  0.00  0.00    -0.894 OA
ATOM      8  N2  UNL     1     119.170 151.345 140.838  0.00  0.00    -1.935 N 
ATOM      9  C9  UNL     1     118.969 150.566 139.635  0.00  0.00    +2.239 C 
BRANCH   8  10
ATOM     10  C8  UNL     1     119.039 152.777 140.780  0.00  0.00    +1.669 A 
ATOM     11  C12 UNL     1     119.926 153.537 140.001  0.00  0.00    -0.900 A 
ATOM     12  C13 UNL     1     118.028 153.426 141.507  0.00  0.00    -0.792 A 
ATOM     13  C17 UNL     1     119.798 154.928 139.947  0.00  0.00    +0.501 A 
ATOM     14  C18 UNL     1     117.903 154.817 141.450  0.00  0.00    +0.457 A 
ATOM     15  C19 UNL     1     118.788 155.568 140.670  0.00  0.00    -0.418 A 
ENDBRANCH   8  10
BRANCH   9  16
ATOM     16  C11 UNL     1     117.979 150.997 138.586  0.00  0.00    -0.803 C 
ATOM     17  C14 UNL     1     116.565 150.591 138.988  0.00  0.00    +0.167 C 
ENDBRANCH   9  16
ENDBRANCH   2   8
BRANCH   1  18
ATOM     18  C6  UNL     1     119.868 150.122 146.381  0.00  0.00    +0.434 C 
BRANCH  18  19
ATOM     19  C7  UNL     1     119.790 151.239 147.432  0.00  0.00    -0.555 C 
BRANCH  19  20
ATOM     20  C10 UNL     1     118.621 152.154 147.171  0.00  0.00    +0.852 A 
ATOM     21  C15 UNL     1     117.312 151.730 147.454  0.00  0.00    -0.403 A 
ATOM     22  C16 UNL     1     118.824 153.414 146.581  0.00  0.00    -0.338 A 
ATOM     23  C20 UNL     1     116.224 152.562 147.168  0.00  0.00    +0.215 A 
ATOM     24  C21 UNL     1     117.734 154.241 146.296  0.00  0.00    +0.195 A 
ATOM     25  C22 UNL     1     116.436 153.817 146.590  0.00  0.00    -0.176 A 
ENDBRANCH  19  20
ENDBRANCH  18  19
ENDBRANCH   1  18
TORSDOF 6
ENDMDL
MODEL 6
REMARK VINA RESULT:    -7.441      3.827      5.997
REMARK INTER + INTRA:         -10.569
REMARK INTER:                  -9.566
REMARK INTRA:                  -1.003
REMARK UNBOUND:                -0.518
REMARK  Name = Output/Trash/FentanylSDF_ligand_intermediary.pdb
REMARK  7 active torsions:
REMARK  status: ('A' for Active; 'I' for Inactive)
REMARK    1  A    between atoms: N1_2  and  C6_9
REMARK    2  A    between atoms: N2_3  and  C1_4
REMARK    3  A    between atoms: N2_3  and  C8_11
REMARK    4  A    between atoms: C6_9  and  C7_10
REMARK    5  A    between atoms: C7_10  and  C10_13
REMARK    6  A    between atoms: C9_12  and  C11_14
REMARK    7  A    between atoms: C11_14  and  C14_17
REMARK                            x       y       z     vdW  Elec       q    Type
REMARK                         _______ _______ _______ _____ _____    ______ ____
ROOT
ATOM      1  N1  UNL     1     119.651 152.758 141.266  0.00  0.00    -0.752 NA
ATOM      2  C1  UNL     1     119.163 151.361 143.774  0.00  0.00    +1.654 C 
ATOM      3  C2  UNL     1     120.581 151.747 143.321  0.00  0.00    -0.765 C 
ATOM      4  C3  UNL     1     118.109 152.283 143.135  0.00  0.00    -0.856 C 
ATOM      5  C4  UNL     1     120.654 151.807 141.791  0.00  0.00    +0.580 C 
ATOM      6  C5  UNL     1     118.285 152.308 141.613  0.00  0.00    +0.623 C 
ENDROOT
BRANCH   2   8
ATOM      7  O1  UNL     1     119.917 149.176 145.574  0.00  0.00    -0.894 OA
ATOM      8  N2  UNL     1     119.053 151.339 145.247  0.00  0.00    -1.935 N 
ATOM      9  C9  UNL     1     119.688 150.319 146.054  0.00  0.00    +2.239 C 
BRANCH   8  10
ATOM     10  C8  UNL     1     118.234 152.334 145.887  0.00  0.00    +1.669 A 
ATOM     11  C12 UNL     1     116.897 152.049 146.207  0.00  0.00    -0.900 A 
ATOM     12  C13 UNL     1     118.762 153.599 146.188  0.00  0.00    -0.792 A 
ATOM     13  C17 UNL     1     116.102 153.017 146.827  0.00  0.00    +0.501 A 
ATOM     14  C18 UNL     1     117.965 154.565 146.809  0.00  0.00    +0.457 A 
ATOM     15  C19 UNL     1     116.635 154.274 147.128  0.00  0.00    -0.418 A 
ENDBRANCH   8  10
BRANCH   9  16
ATOM     16  C11 UNL     1     120.155 150.615 147.454  0.00  0.00    -0.803 C 
ATOM     17  C14 UNL     1     121.544 151.242 147.433  0.00  0.00    +0.167 C 
ENDBRANCH   9  16
ENDBRANCH   2   8
BRANCH   1  18
ATOM     18  C6  UNL     1     119.801 152.922 139.802  0.00  0.00    +0.434 C 
BRANCH  18  19
ATOM     19  C7  UNL     1     120.104 154.382 139.439  0.00  0.00    -0.555 C 
BRANCH  19  20
ATOM     20  C10 UNL     1     121.588 154.625 139.332  0.00  0.00    +0.852 A 
ATOM     21  C15 UNL     1     122.353 154.852 140.488  0.00  0.00    -0.403 A 
ATOM     22  C16 UNL     1     122.206 154.692 138.072  0.00  0.00    -0.338 A 
ATOM     23  C20 UNL     1     123.721 155.124 140.385  0.00  0.00    +0.215 A 
ATOM     24  C21 UNL     1     123.574 154.965 137.973  0.00  0.00    +0.195 A 
ATOM     25  C22 UNL     1     124.331 155.179 139.128  0.00  0.00    -0.176 A 
ENDBRANCH  19  20
ENDBRANCH  18  19
ENDBRANCH   1  18
TORSDOF 6
ENDMDL
MODEL 7
REMARK VINA RESULT:    -7.278      3.614      5.825
REMARK INTER + INTRA:         -10.348
REMARK INTER:                  -9.561
REMARK INTRA:                  -0.787
REMARK UNBOUND:                -0.518
REMARK  Name = Output/Trash/FentanylSDF_ligand_intermediary.pdb
REMARK  7 active torsions:
REMARK  status: ('A' for Active; 'I' for Inactive)
REMARK    1  A    between atoms: N1_2  and  C6_9
REMARK    2  A    between atoms: N2_3  and  C1_4
REMARK    3  A    between atoms: N2_3  and  C8_11
REMARK    4  A    between atoms: C6_9  and  C7_10
REMARK    5  A    between atoms: C7_10  and  C10_13
REMARK    6  A    between atoms: C9_12  and  C11_14
REMARK    7  A    between atoms: C11_14  and  C14_17
REMARK                            x       y       z     vdW  Elec       q    Type
REMARK                         _______ _______ _______ _____ _____    ______ ____
ROOT
ATOM      1  N1  UNL     1     119.693 153.029 140.808  0.00  0.00    -0.752 NA
ATOM      2  C1  UNL     1     118.486 152.951 143.457  0.00  0.00    +1.654 C 
ATOM      3  C2  UNL     1     118.347 151.784 142.466  0.00  0.00    -0.765 C 
ATOM      4  C3  UNL     1     119.748 153.780 143.160  0.00  0.00    -0.856 C 
ATOM      5  C4  UNL     1     118.427 152.297 141.024  0.00  0.00    +0.580 C 
ATOM      6  C5  UNL     1     119.758 154.215 141.690  0.00  0.00    +0.623 C 
ENDROOT
BRANCH   2   8
ATOM      7  O1  UNL     1     116.929 154.069 145.673  0.00  0.00    -0.894 OA
ATOM      8  N2  UNL     1     118.457 152.478 144.857  0.00  0.00    -1.935 N 
ATOM      9  C9  UNL     1     117.465 152.936 145.806  0.00  0.00    +2.239 C 
BRANCH   8  10
ATOM     10  C8  UNL     1     119.490 151.579 145.297  0.00  0.00    +1.669 A 
ATOM     11  C12 UNL     1     119.355 150.196 145.098  0.00  0.00    -0.900 A 
ATOM     12  C13 UNL     1     120.637 152.077 145.936  0.00  0.00    -0.792 A 
ATOM     13  C17 UNL     1     120.359 149.323 145.527  0.00  0.00    +0.501 A 
ATOM     14  C18 UNL     1     121.639 151.201 146.365  0.00  0.00    +0.457 A 
ATOM     15  C19 UNL     1     121.501 149.825 146.160  0.00  0.00    -0.418 A 
ENDBRANCH   8  10
BRANCH   9  16
ATOM     16  C11 UNL     1     116.997 152.050 146.929  0.00  0.00    -0.803 C 
ATOM     17  C14 UNL     1     115.594 152.447 147.374  0.00  0.00    +0.167 C 
ENDBRANCH   9  16
ENDBRANCH   2   8
BRANCH   1  18
ATOM     18  C6  UNL     1     119.840 153.415 139.387  0.00  0.00    +0.434 C 
BRANCH  18  19
ATOM     19  C7  UNL     1     121.093 152.778 138.769  0.00  0.00    -0.555 C 
BRANCH  19  20
ATOM     20  C10 UNL     1     122.273 153.713 138.837  0.00  0.00    +0.852 A 
ATOM     21  C15 UNL     1     122.593 154.532 137.741  0.00  0.00    -0.403 A 
ATOM     22  C16 UNL     1     123.104 153.725 139.971  0.00  0.00    -0.338 A 
ATOM     23  C20 UNL     1     123.716 155.365 137.788  0.00  0.00    +0.215 A 
ATOM     24  C21 UNL     1     124.225 154.557 140.013  0.00  0.00    +0.195 A 
ATOM     25  C22 UNL     1     124.530 155.377 138.924  0.00  0.00    -0.176 A 
ENDBRANCH  19  20
ENDBRANCH  18  19
ENDBRANCH   1  18
TORSDOF 6
ENDMDL
MODEL 8
REMARK VINA RESULT:    -7.158      3.586      6.350
REMARK INTER + INTRA:         -10.187
REMARK INTER:                  -8.986
REMARK INTRA:                  -1.201
REMARK UNBOUND:                -0.518
REMARK  Name = Output/Trash/FentanylSDF_ligand_intermediary.pdb
REMARK  7 active torsions:
REMARK  status: ('A' for Active; 'I' for Inactive)
REMARK    1  A    between atoms: N1_2  and  C6_9
REMARK    2  A    between atoms: N2_3  and  C1_4
REMARK    3  A    between atoms: N2_3  and  C8_11
REMARK    4  A    between atoms: C6_9  and  C7_10
REMARK    5  A    between atoms: C7_10  and  C10_13
REMARK    6  A    between atoms: C9_12  and  C11_14
REMARK    7  A    between atoms: C11_14  and  C14_17
REMARK                            x       y       z     vdW  Elec       q    Type
REMARK                         _______ _______ _______ _____ _____    ______ ____
ROOT
ATOM      1  N1  UNL     1     118.878 153.169 145.160  0.00  0.00    -0.752 NA
ATOM      2  C1  UNL     1     118.932 153.848 142.329  0.00  0.00    +1.654 C 
ATOM      3  C2  UNL     1     120.155 154.054 143.238  0.00  0.00    -0.765 C 
ATOM      4  C3  UNL     1     118.007 152.751 142.887  0.00  0.00    -0.856 C 
ATOM      5  C4  UNL     1     119.710 154.294 144.684  0.00  0.00    +0.580 C 
ATOM      6  C5  UNL     1     117.648 153.058 144.346  0.00  0.00    +0.623 C 
ENDROOT
BRANCH   2   8
ATOM      7  O1  UNL     1     119.085 155.759 140.114  0.00  0.00    -0.894 OA
ATOM      8  N2  UNL     1     119.334 153.570 140.935  0.00  0.00    -1.935 N 
ATOM      9  C9  UNL     1     119.622 154.626 139.988  0.00  0.00    +2.239 C 
BRANCH   8  10
ATOM     10  C8  UNL     1     119.378 152.200 140.496  0.00  0.00    +1.669 A 
ATOM     11  C12 UNL     1     118.269 151.627 139.855  0.00  0.00    -0.900 A 
ATOM     12  C13 UNL     1     120.528 151.424 140.713  0.00  0.00    -0.792 A 
ATOM     13  C17 UNL     1     118.314 150.296 139.430  0.00  0.00    +0.501 A 
ATOM     14  C18 UNL     1     120.569 150.093 140.288  0.00  0.00    +0.457 A 
ATOM     15  C19 UNL     1     119.462 149.529 139.646  0.00  0.00    -0.418 A 
ENDBRANCH   8  10
BRANCH   9  16
ATOM     16  C11 UNL     1     120.619 154.424 138.879  0.00  0.00    -0.803 C 
ATOM     17  C14 UNL     1     122.040 154.625 139.393  0.00  0.00    +0.167 C 
ENDBRANCH   9  16
ENDBRANCH   2   8
BRANCH   1  18
ATOM     18  C6  UNL     1     118.553 153.328 146.596  0.00  0.00    +0.434 C 
BRANCH  18  19
ATOM     19  C7  UNL     1     118.675 151.991 147.341  0.00  0.00    -0.555 C 
BRANCH  19  20
ATOM     20  C10 UNL     1     119.814 151.165 146.801  0.00  0.00    +0.852 A 
ATOM     21  C15 UNL     1     119.563 149.933 146.176  0.00  0.00    -0.403 A 
ATOM     22  C16 UNL     1     121.143 151.589 146.979  0.00  0.00    -0.338 A 
ATOM     23  C20 UNL     1     120.624 149.145 145.718  0.00  0.00    +0.215 A 
ATOM     24  C21 UNL     1     122.200 150.798 146.521  0.00  0.00    +0.195 A 
ATOM     25  C22 UNL     1     121.942 149.579 145.890  0.00  0.00    -0.176 A 
ENDBRANCH  19  20
ENDBRANCH  18  19
ENDBRANCH   1  18
TORSDOF 6
ENDMDL
MODEL 9
REMARK VINA RESULT:    -7.074      3.158      8.526
REMARK INTER + INTRA:         -10.073
REMARK INTER:                  -9.280
REMARK INTRA:                  -0.793
REMARK UNBOUND:                -0.518
REMARK  Name = Output/Trash/FentanylSDF_ligand_intermediary.pdb
REMARK  7 active torsions:
REMARK  status: ('A' for Active; 'I' for Inactive)
REMARK    1  A    between atoms: N1_2  and  C6_9
REMARK    2  A    between atoms: N2_3  and  C1_4
REMARK    3  A    between atoms: N2_3  and  C8_11
REMARK    4  A    between atoms: C6_9  and  C7_10
REMARK    5  A    between atoms: C7_10  and  C10_13
REMARK    6  A    between atoms: C9_12  and  C11_14
REMARK    7  A    between atoms: C11_14  and  C14_17
REMARK                            x       y       z     vdW  Elec       q    Type
REMARK                         _______ _______ _______ _____ _____    ______ ____
ROOT
ATOM      1  N1  UNL     1     118.741 154.145 142.036  0.00  0.00    -0.752 NA
ATOM      2  C1  UNL     1     121.277 154.951 143.220  0.00  0.00    +1.654 C 
ATOM      3  C2  UNL     1     120.978 155.149 141.725  0.00  0.00    -0.765 C 
ATOM      4  C3  UNL     1     119.976 154.894 144.040  0.00  0.00    -0.856 C 
ATOM      5  C4  UNL     1     119.983 154.092 141.235  0.00  0.00    +0.580 C 
ATOM      6  C5  UNL     1     119.031 153.838 143.454  0.00  0.00    +0.623 C 
ENDROOT
BRANCH   2   8
ATOM      7  O1  UNL     1     120.828 157.845 143.303  0.00  0.00    -0.894 OA
ATOM      8  N2  UNL     1     122.201 155.985 143.729  0.00  0.00    -1.935 N 
ATOM      9  C9  UNL     1     121.782 157.351 143.961  0.00  0.00    +2.239 C 
BRANCH   8  10
ATOM     10  C8  UNL     1     123.579 155.626 143.940  0.00  0.00    +1.669 A 
ATOM     11  C12 UNL     1     124.519 155.798 142.913  0.00  0.00    -0.900 A 
ATOM     12  C13 UNL     1     123.990 155.094 145.173  0.00  0.00    -0.792 A 
ATOM     13  C17 UNL     1     125.857 155.447 143.120  0.00  0.00    +0.501 A 
ATOM     14  C18 UNL     1     125.329 154.745 145.376  0.00  0.00    +0.457 A 
ATOM     15  C19 UNL     1     126.262 154.922 144.350  0.00  0.00    -0.418 A 
ENDBRANCH   8  10
BRANCH   9  16
ATOM     16  C11 UNL     1     122.421 158.188 145.036  0.00  0.00    -0.803 C 
ATOM     17  C14 UNL     1     123.408 159.177 144.427  0.00  0.00    +0.167 C 
ENDBRANCH   9  16
ENDBRANCH   2   8
BRANCH   1  18
ATOM     18  C6  UNL     1     117.725 153.219 141.488  0.00  0.00    +0.434 C 
BRANCH  18  19
ATOM     19  C7  UNL     1     118.171 151.758 141.637  0.00  0.00    -0.555 C 
BRANCH  19  20
ATOM     20  C10 UNL     1     118.017 151.003 140.342  0.00  0.00    +0.852 A 
ATOM     21  C15 UNL     1     116.795 151.028 139.648  0.00  0.00    -0.403 A 
ATOM     22  C16 UNL     1     119.071 150.213 139.851  0.00  0.00    -0.338 A 
ATOM     23  C20 UNL     1     116.638 150.290 138.471  0.00  0.00    +0.215 A 
ATOM     24  C21 UNL     1     118.909 149.476 138.675  0.00  0.00    +0.195 A 
ATOM     25  C22 UNL     1     117.695 149.515 137.985  0.00  0.00    -0.176 A 
ENDBRANCH  19  20
ENDBRANCH  18  19
ENDBRANCH   1  18
TORSDOF 6
ENDMDL
