MODEL 1
REMARK VINA RESULT:    -7.185      0.000      0.000
REMARK INTER + INTRA:         -11.035
REMARK INTER:                 -10.125
REMARK INTRA:                  -0.910
REMARK UNBOUND:                -0.910
REMARK  Name = Output/Trash/MethadoneSDF_ligand_intermediary.pdb
REMARK  11 active torsions:
REMARK  status: ('A' for Active; 'I' for Inactive)
REMARK    1  A    between atoms: C1_1  and  C2_2
REMARK    2  A    between atoms: C2_2  and  C3_3
REMARK    3  A    between atoms: C3_3  and  C4_4
REMARK    4  A    between atoms: C4_4  and  C5_5
REMARK    5  A    between atoms: C4_4  and  C6_7
REMARK    6  A    between atoms: C4_4  and  C7_8
REMARK    7  A    between atoms: C5_5  and  C18_19
REMARK    8  A    between atoms: C18_19  and  N1_20
REMARK    9  A    between atoms: C18_19  and  C19_21
REMARK   10  A    between atoms: N1_20  and  C20_22
REMARK   11  A    between atoms: N1_20  and  C21_23
REMARK                            x       y       z     vdW  Elec       q    Type
REMARK                         _______ _______ _______ _____ _____    ______ ____
ROOT
ATOM      1  C4  UNL     1     120.655 118.168  93.009  0.00  0.00    -0.536 C 
ENDROOT
BRANCH   1   2
ATOM      2  C6  UNL     1     119.423 117.483  92.359  0.00  0.00    +0.440 A 
ATOM      3  C8  UNL     1     118.124 118.031  92.489  0.00  0.00    -0.238 A 
ATOM      4  C9  UNL     1     119.575 116.376  91.485  0.00  0.00    -0.275 A 
ATOM      5  C10 UNL     1     117.027 117.451  91.847  0.00  0.00    +0.112 A 
ATOM      6  C11 UNL     1     118.474 115.801  90.848  0.00  0.00    +0.146 A 
ATOM      7  C12 UNL     1     117.200 116.333  91.035  0.00  0.00    -0.132 A 
ENDBRANCH   1   2
BRANCH   1   8
ATOM      8  C7  UNL     1     120.211 119.275  93.990  0.00  0.00    +0.426 A 
ATOM      9  C13 UNL     1     119.830 120.540  93.485  0.00  0.00    -0.136 A 
ATOM     10  C14 UNL     1     120.291 119.121  95.394  0.00  0.00    -0.334 A 
ATOM     11  C15 UNL     1     119.486 121.585  94.346  0.00  0.00    +0.083 A 
ATOM     12  C16 UNL     1     119.942 120.170  96.250  0.00  0.00    +0.161 A 
ATOM     13  C17 UNL     1     119.536 121.398  95.727  0.00  0.00    -0.125 A 
ENDBRANCH   1   8
BRANCH   1  14
ATOM     14  C3  UNL     1     121.432 117.040  93.712  0.00  0.00    +1.172 C 
ATOM     15  O1  UNL     1     122.652 116.980  93.625  0.00  0.00    -0.581 OA
BRANCH  14  17
ATOM     16  C1  UNL     1     121.411 115.725  95.843  0.00  0.00    +0.055 C 
ATOM     17  C2  UNL     1     120.728 115.958  94.498  0.00  0.00    -0.330 C 
ENDBRANCH  14  17
ENDBRANCH   1  14
BRANCH   1  18
ATOM     18  C5  UNL     1     121.545 118.852  91.902  0.00  0.00    -0.300 C 
BRANCH  18  19
ATOM     19  C18 UNL     1     120.991 118.792  90.444  0.00  0.00    +1.160 C 
ATOM     20  C19 UNL     1     120.452 120.172  90.008  0.00  0.00    -0.472 C 
BRANCH  19  21
ATOM     21  N1  UNL     1     122.004 118.238  89.502  0.00  0.00    -0.431 NA
ATOM     22  C20 UNL     1     123.040 117.454  90.195  0.00  0.00    +0.055 C 
ATOM     23  C21 UNL     1     121.447 117.460  88.378  0.00  0.00    +0.081 C 
ENDBRANCH  19  21
ENDBRANCH  18  19
ENDBRANCH   1  18
TORSDOF 7
ENDMDL
MODEL 2
REMARK VINA RESULT:    -7.006      1.783      5.263
REMARK INTER + INTRA:         -10.783
REMARK INTER:                  -9.928
REMARK INTRA:                  -0.854
REMARK UNBOUND:                -0.910
REMARK  Name = Output/Trash/MethadoneSDF_ligand_intermediary.pdb
REMARK  11 active torsions:
REMARK  status: ('A' for Active; 'I' for Inactive)
REMARK    1  A    between atoms: C1_1  and  C2_2
REMARK    2  A    between atoms: C2_2  and  C3_3
REMARK    3  A    between atoms: C3_3  and  C4_4
REMARK    4  A    between atoms: C4_4  and  C5_5
REMARK    5  A    between atoms: C4_4  and  C6_7
REMARK    6  A    between atoms: C4_4  and  C7_8
REMARK    7  A    between atoms: C5_5  and  C18_19
REMARK    8  A    between atoms: C18_19  and  N1_20
REMARK    9  A    between atoms: C18_19  and  C19_21
REMARK   10  A    between atoms: N1_20  and  C20_22
REMARK   11  A    between atoms: N1_20  and  C21_23
REMARK                            x       y       z     vdW  Elec       q    Type
REMARK                         _______ _______ _______ _____ _____    ______ ____
ROOT
ATOM      1  C4  UNL     1     119.782 116.762  90.692  0.00  0.00    -0.536 C 
ENDROOT
BRANCH   1   2
ATOM      2  C6  UNL     1     120.681 116.635  89.434  0.00  0.00    +0.440 A 
ATOM      3  C8  UNL     1     121.149 115.374  88.990  0.00  0.00    -0.238 A 
ATOM      4  C9  UNL     1     120.938 117.753  88.600  0.00  0.00    -0.275 A 
ATOM      5  C10 UNL     1     121.904 115.256  87.819  0.00  0.00    +0.112 A 
ATOM      6  C11 UNL     1     121.692 117.626  87.432  0.00  0.00    +0.146 A 
ATOM      7  C12 UNL     1     122.182 116.380  87.046  0.00  0.00    -0.132 A 
ENDBRANCH   1   2
BRANCH   1   8
ATOM      8  C7  UNL     1     118.442 116.020  90.483  0.00  0.00    +0.426 A 
ATOM      9  C13 UNL     1     118.445 114.733  89.898  0.00  0.00    -0.136 A 
ATOM     10  C14 UNL     1     117.190 116.629  90.736  0.00  0.00    -0.334 A 
ATOM     11  C15 UNL     1     117.249 114.060  89.635  0.00  0.00    +0.083 A 
ATOM     12  C16 UNL     1     115.998 115.948  90.472  0.00  0.00    +0.161 A 
ATOM     13  C17 UNL     1     116.027 114.664  89.927  0.00  0.00    -0.125 A 
ENDBRANCH   1   8
BRANCH   1  14
ATOM     14  C3  UNL     1     120.604 116.171  91.851  0.00  0.00    +1.172 C 
ATOM     15  O1  UNL     1     121.827 116.231  91.837  0.00  0.00    -0.581 OA
BRANCH  14  17
ATOM     16  C1  UNL     1     120.678 115.777  94.322  0.00  0.00    +0.055 C 
ATOM     17  C2  UNL     1     119.946 115.473  93.018  0.00  0.00    -0.330 C 
ENDBRANCH  14  17
ENDBRANCH   1  14
BRANCH   1  18
ATOM     18  C5  UNL     1     119.440 118.277  90.966  0.00  0.00    -0.300 C 
BRANCH  18  19
ATOM     19  C18 UNL     1     120.431 119.045  91.895  0.00  0.00    +1.160 C 
ATOM     20  C19 UNL     1     120.957 120.318  91.197  0.00  0.00    -0.472 C 
BRANCH  19  21
ATOM     21  N1  UNL     1     119.823 119.319  93.228  0.00  0.00    -0.431 NA
ATOM     22  C20 UNL     1     120.055 120.705  93.670  0.00  0.00    +0.055 C 
ATOM     23  C21 UNL     1     118.390 118.986  93.338  0.00  0.00    +0.081 C 
ENDBRANCH  19  21
ENDBRANCH  18  19
ENDBRANCH   1  18
TORSDOF 7
ENDMDL
MODEL 3
REMARK VINA RESULT:    -6.919      1.391      1.971
REMARK INTER + INTRA:         -10.661
REMARK INTER:                 -10.005
REMARK INTRA:                  -0.655
REMARK UNBOUND:                -0.910
REMARK  Name = Output/Trash/MethadoneSDF_ligand_intermediary.pdb
REMARK  11 active torsions:
REMARK  status: ('A' for Active; 'I' for Inactive)
REMARK    1  A    between atoms: C1_1  and  C2_2
REMARK    2  A    between atoms: C2_2  and  C3_3
REMARK    3  A    between atoms: C3_3  and  C4_4
REMARK    4  A    between atoms: C4_4  and  C5_5
REMARK    5  A    between atoms: C4_4  and  C6_7
REMARK    6  A    between atoms: C4_4  and  C7_8
REMARK    7  A    between atoms: C5_5  and  C18_19
REMARK    8  A    between atoms: C18_19  and  N1_20
REMARK    9  A    between atoms: C18_19  and  C19_21
REMARK   10  A    between atoms: N1_20  and  C20_22
REMARK   11  A    between atoms: N1_20  and  C21_23
REMARK                            x       y       z     vdW  Elec       q    Type
REMARK                         _______ _______ _______ _____ _____    ______ ____
ROOT
ATOM      1  C4  UNL     1     120.268 117.617  92.629  0.00  0.00    -0.536 C 
ENDROOT
BRANCH   1   2
ATOM      2  C6  UNL     1     118.950 117.130  91.972  0.00  0.00    +0.440 A 
ATOM      3  C8  UNL     1     117.744 117.860  92.114  0.00  0.00    -0.238 A 
ATOM      4  C9  UNL     1     118.939 116.026  91.082  0.00  0.00    -0.275 A 
ATOM      5  C10 UNL     1     116.575 117.455  91.465  0.00  0.00    +0.112 A 
ATOM      6  C11 UNL     1     117.765 115.628  90.438  0.00  0.00    +0.146 A 
ATOM      7  C12 UNL     1     116.582 116.337  90.636  0.00  0.00    -0.132 A 
ENDBRANCH   1   2
BRANCH   1   8
ATOM      8  C7  UNL     1     120.036 118.927  93.415  0.00  0.00    +0.426 A 
ATOM      9  C13 UNL     1     120.285 120.168  92.785  0.00  0.00    -0.136 A 
ATOM     10  C14 UNL     1     119.706 118.938  94.791  0.00  0.00    -0.334 A 
ATOM     11  C15 UNL     1     120.149 121.370  93.485  0.00  0.00    +0.083 A 
ATOM     12  C16 UNL     1     119.569 120.145  95.484  0.00  0.00    +0.161 A 
ATOM     13  C17 UNL     1     119.786 121.359  94.831  0.00  0.00    -0.125 A 
ENDBRANCH   1   8
BRANCH   1  14
ATOM     14  C3  UNL     1     120.728 116.463  93.538  0.00  0.00    +1.172 C 
ATOM     15  O1  UNL     1     120.171 115.374  93.487  0.00  0.00    -0.581 OA
BRANCH  14  17
ATOM     16  C1  UNL     1     121.543 115.893  95.836  0.00  0.00    +0.055 C 
ATOM     17  C2  UNL     1     121.848 116.636  94.539  0.00  0.00    -0.330 C 
ENDBRANCH  14  17
ENDBRANCH   1  14
BRANCH   1  18
ATOM     18  C5  UNL     1     121.349 117.920  91.522  0.00  0.00    -0.300 C 
BRANCH  18  19
ATOM     19  C18 UNL     1     122.483 116.861  91.365  0.00  0.00    +1.160 C 
ATOM     20  C19 UNL     1     122.351 116.115  90.019  0.00  0.00    -0.472 C 
BRANCH  19  21
ATOM     21  N1  UNL     1     123.828 117.473  91.562  0.00  0.00    -0.431 NA
ATOM     22  C20 UNL     1     123.756 118.756  92.281  0.00  0.00    +0.055 C 
ATOM     23  C21 UNL     1     124.825 116.590  92.200  0.00  0.00    +0.081 C 
ENDBRANCH  19  21
ENDBRANCH  18  19
ENDBRANCH   1  18
TORSDOF 7
ENDMDL
MODEL 4
REMARK VINA RESULT:    -6.855      1.634      4.487
REMARK INTER + INTRA:         -10.570
REMARK INTER:                 -10.118
REMARK INTRA:                  -0.452
REMARK UNBOUND:                -0.910
REMARK  Name = Output/Trash/MethadoneSDF_ligand_intermediary.pdb
REMARK  11 active torsions:
REMARK  status: ('A' for Active; 'I' for Inactive)
REMARK    1  A    between atoms: C1_1  and  C2_2
REMARK    2  A    between atoms: C2_2  and  C3_3
REMARK    3  A    between atoms: C3_3  and  C4_4
REMARK    4  A    between atoms: C4_4  and  C5_5
REMARK    5  A    between atoms: C4_4  and  C6_7
REMARK    6  A    between atoms: C4_4  and  C7_8
REMARK    7  A    between atoms: C5_5  and  C18_19
REMARK    8  A    between atoms: C18_19  and  N1_20
REMARK    9  A    between atoms: C18_19  and  C19_21
REMARK   10  A    between atoms: N1_20  and  C20_22
REMARK   11  A    between atoms: N1_20  and  C21_23
REMARK                            x       y       z     vdW  Elec       q    Type
REMARK                         _______ _______ _______ _____ _____    ______ ____
ROOT
ATOM      1  C4  UNL     1     120.450 118.715  92.911  0.00  0.00    -0.536 C 
ENDROOT
BRANCH   1   2
ATOM      2  C6  UNL     1     119.985 119.698  94.018  0.00  0.00    +0.440 A 
ATOM      3  C8  UNL     1     120.268 119.455  95.384  0.00  0.00    -0.238 A 
ATOM      4  C9  UNL     1     119.397 120.946  93.690  0.00  0.00    -0.275 A 
ATOM      5  C10 UNL     1     119.906 120.375  96.371  0.00  0.00    +0.112 A 
ATOM      6  C11 UNL     1     119.038 121.860  94.682  0.00  0.00    +0.146 A 
ATOM      7  C12 UNL     1     119.285 121.571  96.023  0.00  0.00    -0.132 A 
ENDBRANCH   1   2
BRANCH   1   8
ATOM      8  C7  UNL     1     121.748 119.220  92.242  0.00  0.00    +0.426 A 
ATOM      9  C13 UNL     1     122.077 118.775  90.941  0.00  0.00    -0.136 A 
ATOM     10  C14 UNL     1     122.696 120.015  92.928  0.00  0.00    -0.334 A 
ATOM     11  C15 UNL     1     123.274 119.158  90.331  0.00  0.00    +0.083 A 
ATOM     12  C16 UNL     1     123.890 120.398  92.310  0.00  0.00    +0.161 A 
ATOM     13  C17 UNL     1     124.176 119.974  91.012  0.00  0.00    -0.125 A 
ENDBRANCH   1   8
BRANCH   1  14
ATOM     14  C3  UNL     1     120.645 117.360  93.616  0.00  0.00    +1.172 C 
ATOM     15  O1  UNL     1     119.687 116.626  93.823  0.00  0.00    -0.581 OA
BRANCH  14  17
ATOM     16  C1  UNL     1     121.879 116.120  95.407  0.00  0.00    +0.055 C 
ATOM     17  C2  UNL     1     122.000 116.903  94.102  0.00  0.00    -0.330 C 
ENDBRANCH  14  17
ENDBRANCH   1  14
BRANCH   1  18
ATOM     18  C5  UNL     1     119.354 118.605  91.783  0.00  0.00    -0.300 C 
BRANCH  18  19
ATOM     19  C18 UNL     1     118.220 117.563  92.031  0.00  0.00    +1.160 C 
ATOM     20  C19 UNL     1     116.954 118.254  92.583  0.00  0.00    -0.472 C 
BRANCH  19  21
ATOM     21  N1  UNL     1     117.954 116.750  90.810  0.00  0.00    -0.431 NA
ATOM     22  C20 UNL     1     119.031 115.783  90.539  0.00  0.00    +0.055 C 
ATOM     23  C21 UNL     1     116.645 116.069  90.789  0.00  0.00    +0.081 C 
ENDBRANCH  19  21
ENDBRANCH  18  19
ENDBRANCH   1  18
TORSDOF 7
ENDMDL
MODEL 5
REMARK VINA RESULT:    -6.800      1.738      4.872
REMARK INTER + INTRA:         -10.493
REMARK INTER:                  -9.609
REMARK INTRA:                  -0.883
REMARK UNBOUND:                -0.910
REMARK  Name = Output/Trash/MethadoneSDF_ligand_intermediary.pdb
REMARK  11 active torsions:
REMARK  status: ('A' for Active; 'I' for Inactive)
REMARK    1  A    between atoms: C1_1  and  C2_2
REMARK    2  A    between atoms: C2_2  and  C3_3
REMARK    3  A    between atoms: C3_3  and  C4_4
REMARK    4  A    between atoms: C4_4  and  C5_5
REMARK    5  A    between atoms: C4_4  and  C6_7
REMARK    6  A    between atoms: C4_4  and  C7_8
REMARK    7  A    between atoms: C5_5  and  C18_19
REMARK    8  A    between atoms: C18_19  and  N1_20
REMARK    9  A    between atoms: C18_19  and  C19_21
REMARK   10  A    between atoms: N1_20  and  C20_22
REMARK   11  A    between atoms: N1_20  and  C21_23
REMARK                            x       y       z     vdW  Elec       q    Type
REMARK                         _______ _______ _______ _____ _____    ______ ____
ROOT
ATOM      1  C4  UNL     1     120.548 117.970  92.001  0.00  0.00    -0.536 C 
ENDROOT
BRANCH   1   2
ATOM      2  C6  UNL     1     121.472 118.201  90.776  0.00  0.00    +0.440 A 
ATOM      3  C8  UNL     1     122.279 119.360  90.672  0.00  0.00    -0.238 A 
ATOM      4  C9  UNL     1     121.659 117.191  89.798  0.00  0.00    -0.275 A 
ATOM      5  C10 UNL     1     123.160 119.533  89.602  0.00  0.00    +0.112 A 
ATOM      6  C11 UNL     1     122.541 117.372  88.731  0.00  0.00    +0.146 A 
ATOM      7  C12 UNL     1     123.285 118.545  88.628  0.00  0.00    -0.132 A 
ENDBRANCH   1   2
BRANCH   1   8
ATOM      8  C7  UNL     1     119.141 117.522  91.547  0.00  0.00    +0.426 A 
ATOM      9  C13 UNL     1     118.010 118.265  91.957  0.00  0.00    -0.136 A 
ATOM     10  C14 UNL     1     118.919 116.317  90.839  0.00  0.00    -0.334 A 
ATOM     11  C15 UNL     1     116.718 117.852  91.620  0.00  0.00    +0.083 A 
ATOM     12  C16 UNL     1     117.624 115.912  90.504  0.00  0.00    +0.161 A 
ATOM     13  C17 UNL     1     116.525 116.681  90.889  0.00  0.00    -0.125 A 
ENDBRANCH   1   8
BRANCH   1  14
ATOM     14  C3  UNL     1     121.254 116.903  92.857  0.00  0.00    +1.172 C 
ATOM     15  O1  UNL     1     122.472 116.783  92.818  0.00  0.00    -0.581 OA
BRANCH  14  17
ATOM     16  C1  UNL     1     121.165 115.786  95.096  0.00  0.00    +0.055 C 
ATOM     17  C2  UNL     1     120.480 115.953  93.742  0.00  0.00    -0.330 C 
ENDBRANCH  14  17
ENDBRANCH   1  14
BRANCH   1  18
ATOM     18  C5  UNL     1     120.373 119.311  92.812  0.00  0.00    -0.300 C 
BRANCH  18  19
ATOM     19  C18 UNL     1     120.957 119.316  94.259  0.00  0.00    +1.160 C 
ATOM     20  C19 UNL     1     122.238 120.177  94.327  0.00  0.00    -0.472 C 
BRANCH  19  21
ATOM     21  N1  UNL     1     119.928 119.722  95.258  0.00  0.00    -0.431 NA
ATOM     22  C20 UNL     1     120.333 119.399  96.636  0.00  0.00    +0.055 C 
ATOM     23  C21 UNL     1     119.501 121.132  95.173  0.00  0.00    +0.081 C 
ENDBRANCH  19  21
ENDBRANCH  18  19
ENDBRANCH   1  18
TORSDOF 7
ENDMDL
MODEL 6
REMARK VINA RESULT:    -6.707      1.878      5.158
REMARK INTER + INTRA:         -10.362
REMARK INTER:                  -9.662
REMARK INTRA:                  -0.701
REMARK UNBOUND:                -0.910
REMARK  Name = Output/Trash/MethadoneSDF_ligand_intermediary.pdb
REMARK  11 active torsions:
REMARK  status: ('A' for Active; 'I' for Inactive)
REMARK    1  A    between atoms: C1_1  and  C2_2
REMARK    2  A    between atoms: C2_2  and  C3_3
REMARK    3  A    between atoms: C3_3  and  C4_4
REMARK    4  A    between atoms: C4_4  and  C5_5
REMARK    5  A    between atoms: C4_4  and  C6_7
REMARK    6  A    between atoms: C4_4  and  C7_8
REMARK    7  A    between atoms: C5_5  and  C18_19
REMARK    8  A    between atoms: C18_19  and  N1_20
REMARK    9  A    between atoms: C18_19  and  C19_21
REMARK   10  A    between atoms: N1_20  and  C20_22
REMARK   11  A    between atoms: N1_20  and  C21_23
REMARK                            x       y       z     vdW  Elec       q    Type
REMARK                         _______ _______ _______ _____ _____    ______ ____
ROOT
ATOM      1  C4  UNL     1     120.123 118.090  91.427  0.00  0.00    -0.536 C 
ENDROOT
BRANCH   1   2
ATOM      2  C6  UNL     1     119.894 119.194  92.493  0.00  0.00    +0.440 A 
ATOM      3  C8  UNL     1     119.081 118.961  93.629  0.00  0.00    -0.238 A 
ATOM      4  C9  UNL     1     120.611 120.417  92.449  0.00  0.00    -0.275 A 
ATOM      5  C10 UNL     1     118.930 119.933  94.621  0.00  0.00    +0.112 A 
ATOM      6  C11 UNL     1     120.454 121.383  93.444  0.00  0.00    +0.146 A 
ATOM      7  C12 UNL     1     119.609 121.146  94.525  0.00  0.00    -0.132 A 
ENDBRANCH   1   2
BRANCH   1   8
ATOM      8  C7  UNL     1     118.819 117.307  91.161  0.00  0.00    +0.426 A 
ATOM      9  C13 UNL     1     118.891 115.984  90.668  0.00  0.00    -0.136 A 
ATOM     10  C14 UNL     1     117.540 117.903  91.268  0.00  0.00    -0.334 A 
ATOM     11  C15 UNL     1     117.732 115.268  90.354  0.00  0.00    +0.083 A 
ATOM     12  C16 UNL     1     116.385 117.180  90.955  0.00  0.00    +0.161 A 
ATOM     13  C17 UNL     1     116.481 115.864  90.503  0.00  0.00    -0.125 A 
ENDBRANCH   1   8
BRANCH   1  14
ATOM     14  C3  UNL     1     120.631 118.825  90.173  0.00  0.00    +1.172 C 
ATOM     15  O1  UNL     1     120.070 119.840  89.781  0.00  0.00    -0.581 OA
BRANCH  14  17
ATOM     16  C1  UNL     1     121.328 117.531  88.147  0.00  0.00    +0.055 C 
ATOM     17  C2  UNL     1     121.803 118.311  89.370  0.00  0.00    -0.330 C 
ENDBRANCH  14  17
ENDBRANCH   1  14
BRANCH   1  18
ATOM     18  C5  UNL     1     121.196 117.053  91.939  0.00  0.00    -0.300 C 
BRANCH  18  19
ATOM     19  C18 UNL     1     122.195 117.577  93.016  0.00  0.00    +1.160 C 
ATOM     20  C19 UNL     1     122.217 116.638  94.242  0.00  0.00    -0.472 C 
BRANCH  19  21
ATOM     21  N1  UNL     1     123.548 117.809  92.435  0.00  0.00    -0.431 NA
ATOM     22  C20 UNL     1     124.068 119.150  92.752  0.00  0.00    +0.055 C 
ATOM     23  C21 UNL     1     124.553 116.783  92.773  0.00  0.00    +0.081 C 
ENDBRANCH  19  21
ENDBRANCH  18  19
ENDBRANCH   1  18
TORSDOF 7
ENDMDL
MODEL 7
REMARK VINA RESULT:    -6.578      1.835      4.368
REMARK INTER + INTRA:         -10.180
REMARK INTER:                  -9.461
REMARK INTRA:                  -0.719
REMARK UNBOUND:                -0.910
REMARK  Name = Output/Trash/MethadoneSDF_ligand_intermediary.pdb
REMARK  11 active torsions:
REMARK  status: ('A' for Active; 'I' for Inactive)
REMARK    1  A    between atoms: C1_1  and  C2_2
REMARK    2  A    between atoms: C2_2  and  C3_3
REMARK    3  A    between atoms: C3_3  and  C4_4
REMARK    4  A    between atoms: C4_4  and  C5_5
REMARK    5  A    between atoms: C4_4  and  C6_7
REMARK    6  A    between atoms: C4_4  and  C7_8
REMARK    7  A    between atoms: C5_5  and  C18_19
REMARK    8  A    between atoms: C18_19  and  N1_20
REMARK    9  A    between atoms: C18_19  and  C19_21
REMARK   10  A    between atoms: N1_20  and  C20_22
REMARK   11  A    between atoms: N1_20  and  C21_23
REMARK                            x       y       z     vdW  Elec       q    Type
REMARK                         _______ _______ _______ _____ _____    ______ ____
ROOT
ATOM      1  C4  UNL     1     120.255 117.191  92.339  0.00  0.00    -0.536 C 
ENDROOT
BRANCH   1   2
ATOM      2  C6  UNL     1     121.393 116.741  91.384  0.00  0.00    +0.440 A 
ATOM      3  C8  UNL     1     121.159 116.549  90.001  0.00  0.00    -0.238 A 
ATOM      4  C9  UNL     1     122.736 116.659  91.832  0.00  0.00    -0.275 A 
ATOM      5  C10 UNL     1     122.199 116.209  89.133  0.00  0.00    +0.112 A 
ATOM      6  C11 UNL     1     123.770 116.319  90.958  0.00  0.00    +0.146 A 
ATOM      7  C12 UNL     1     123.501 116.086  89.611  0.00  0.00    -0.132 A 
ENDBRANCH   1   2
BRANCH   1   8
ATOM      8  C7  UNL     1     118.874 116.984  91.679  0.00  0.00    +0.426 A 
ATOM      9  C13 UNL     1     117.889 117.992  91.798  0.00  0.00    -0.136 A 
ATOM     10  C14 UNL     1     118.501 115.766  91.064  0.00  0.00    -0.334 A 
ATOM     11  C15 UNL     1     116.608 117.812  91.271  0.00  0.00    +0.083 A 
ATOM     12  C16 UNL     1     117.218 115.594  90.536  0.00  0.00    +0.161 A 
ATOM     13  C17 UNL     1     116.275 116.617  90.635  0.00  0.00    -0.125 A 
ENDBRANCH   1   8
BRANCH   1  14
ATOM     14  C3  UNL     1     120.427 116.346  93.614  0.00  0.00    +1.172 C 
ATOM     15  O1  UNL     1     120.042 115.183  93.644  0.00  0.00    -0.581 OA
BRANCH  14  17
ATOM     16  C1  UNL     1     121.471 115.808  95.826  0.00  0.00    +0.055 C 
ATOM     17  C2  UNL     1     121.037 116.918  94.872  0.00  0.00    -0.330 C 
ENDBRANCH  14  17
ENDBRANCH   1  14
BRANCH   1  18
ATOM     18  C5  UNL     1     120.393 118.727  92.665  0.00  0.00    -0.300 C 
BRANCH  18  19
ATOM     19  C18 UNL     1     121.431 119.518  91.811  0.00  0.00    +1.160 C 
ATOM     20  C19 UNL     1     120.735 120.241  90.637  0.00  0.00    -0.472 C 
BRANCH  19  21
ATOM     21  N1  UNL     1     122.246 120.435  92.658  0.00  0.00    -0.431 NA
ATOM     22  C20 UNL     1     121.905 120.323  94.087  0.00  0.00    +0.055 C 
ATOM     23  C21 UNL     1     123.705 120.317  92.476  0.00  0.00    +0.081 C 
ENDBRANCH  19  21
ENDBRANCH  18  19
ENDBRANCH   1  18
TORSDOF 7
ENDMDL
MODEL 8
REMARK VINA RESULT:    -6.122      6.697      9.209
REMARK INTER + INTRA:          -9.537
REMARK INTER:                  -8.367
REMARK INTRA:                  -1.171
REMARK UNBOUND:                -0.910
REMARK  Name = Output/Trash/MethadoneSDF_ligand_intermediary.pdb
REMARK  11 active torsions:
REMARK  status: ('A' for Active; 'I' for Inactive)
REMARK    1  A    between atoms: C1_1  and  C2_2
REMARK    2  A    between atoms: C2_2  and  C3_3
REMARK    3  A    between atoms: C3_3  and  C4_4
REMARK    4  A    between atoms: C4_4  and  C5_5
REMARK    5  A    between atoms: C4_4  and  C6_7
REMARK    6  A    between atoms: C4_4  and  C7_8
REMARK    7  A    between atoms: C5_5  and  C18_19
REMARK    8  A    between atoms: C18_19  and  N1_20
REMARK    9  A    between atoms: C18_19  and  C19_21
REMARK   10  A    between atoms: N1_20  and  C20_22
REMARK   11  A    between atoms: N1_20  and  C21_23
REMARK                            x       y       z     vdW  Elec       q    Type
REMARK                         _______ _______ _______ _____ _____    ______ ____
ROOT
ATOM      1  C4  UNL     1     127.807 118.729  90.913  0.00  0.00    -0.536 C 
ENDROOT
BRANCH   1   2
ATOM      2  C6  UNL     1     128.566 119.153  92.198  0.00  0.00    +0.440 A 
ATOM      3  C8  UNL     1     128.174 118.680  93.473  0.00  0.00    -0.238 A 
ATOM      4  C9  UNL     1     129.769 119.901  92.125  0.00  0.00    -0.275 A 
ATOM      5  C10 UNL     1     128.899 119.010  94.621  0.00  0.00    +0.112 A 
ATOM      6  C11 UNL     1     130.488 120.227  93.277  0.00  0.00    +0.146 A 
ATOM      7  C12 UNL     1     130.050 119.789  94.525  0.00  0.00    -0.132 A 
ENDBRANCH   1   2
BRANCH   1   8
ATOM      8  C7  UNL     1     127.415 117.236  90.977  0.00  0.00    +0.426 A 
ATOM      9  C13 UNL     1     126.163 116.869  91.522  0.00  0.00    -0.136 A 
ATOM     10  C14 UNL     1     128.313 116.200  90.629  0.00  0.00    -0.334 A 
ATOM     11  C15 UNL     1     125.803 115.526  91.656  0.00  0.00    +0.083 A 
ATOM     12  C16 UNL     1     127.945 114.858  90.763  0.00  0.00    +0.161 A 
ATOM     13  C17 UNL     1     126.690 114.521  91.271  0.00  0.00    -0.125 A 
ENDBRANCH   1   8
BRANCH   1  14
ATOM     14  C3  UNL     1     126.579 119.653  90.833  0.00  0.00    +1.172 C 
ATOM     15  O1  UNL     1     125.687 119.430  90.025  0.00  0.00    -0.581 OA
BRANCH  14  17
ATOM     16  C1  UNL     1     126.135 122.117  90.884  0.00  0.00    +0.055 C 
ATOM     17  C2  UNL     1     126.442 120.874  91.714  0.00  0.00    -0.330 C 
ENDBRANCH  14  17
ENDBRANCH   1  14
BRANCH   1  18
ATOM     18  C5  UNL     1     128.729 118.917  89.648  0.00  0.00    -0.300 C 
BRANCH  18  19
ATOM     19  C18 UNL     1     128.366 120.106  88.706  0.00  0.00    +1.160 C 
ATOM     20  C19 UNL     1     129.501 121.153  88.686  0.00  0.00    -0.472 C 
BRANCH  19  21
ATOM     21  N1  UNL     1     127.991 119.627  87.346  0.00  0.00    -0.431 NA
ATOM     22  C20 UNL     1     127.743 118.176  87.316  0.00  0.00    +0.055 C 
ATOM     23  C21 UNL     1     126.864 120.346  86.722  0.00  0.00    +0.081 C 
ENDBRANCH  19  21
ENDBRANCH  18  19
ENDBRANCH   1  18
TORSDOF 7
ENDMDL
MODEL 9
REMARK VINA RESULT:    -5.830      2.245      4.631
REMARK INTER + INTRA:          -9.126
REMARK INTER:                  -8.102
REMARK INTRA:                  -1.024
REMARK UNBOUND:                -0.910
REMARK  Name = Output/Trash/MethadoneSDF_ligand_intermediary.pdb
REMARK  11 active torsions:
REMARK  status: ('A' for Active; 'I' for Inactive)
REMARK    1  A    between atoms: C1_1  and  C2_2
REMARK    2  A    between atoms: C2_2  and  C3_3
REMARK    3  A    between atoms: C3_3  and  C4_4
REMARK    4  A    between atoms: C4_4  and  C5_5
REMARK    5  A    between atoms: C4_4  and  C6_7
REMARK    6  A    between atoms: C4_4  and  C7_8
REMARK    7  A    between atoms: C5_5  and  C18_19
REMARK    8  A    between atoms: C18_19  and  N1_20
REMARK    9  A    between atoms: C18_19  and  C19_21
REMARK   10  A    between atoms: N1_20  and  C20_22
REMARK   11  A    between atoms: N1_20  and  C21_23
REMARK                            x       y       z     vdW  Elec       q    Type
REMARK                         _______ _______ _______ _____ _____    ______ ____
ROOT
ATOM      1  C4  UNL     1     122.220 118.810  91.720  0.00  0.00    -0.536 C 
ENDROOT
BRANCH   1   2
ATOM      2  C6  UNL     1     121.474 119.447  92.922  0.00  0.00    +0.440 A 
ATOM      3  C8  UNL     1     121.880 119.198  94.255  0.00  0.00    -0.238 A 
ATOM      4  C9  UNL     1     120.462 120.421  92.724  0.00  0.00    -0.275 A 
ATOM      5  C10 UNL     1     121.249 119.826  95.332  0.00  0.00    +0.112 A 
ATOM      6  C11 UNL     1     119.837 121.044  93.805  0.00  0.00    +0.146 A 
ATOM      7  C12 UNL     1     120.224 120.741  95.109  0.00  0.00    -0.132 A 
ENDBRANCH   1   2
BRANCH   1   8
ATOM      8  C7  UNL     1     123.359 119.732  91.231  0.00  0.00    +0.426 A 
ATOM      9  C13 UNL     1     123.610 119.851  89.845  0.00  0.00    -0.136 A 
ATOM     10  C14 UNL     1     124.255 120.369  92.122  0.00  0.00    -0.334 A 
ATOM     11  C15 UNL     1     124.673 120.624  89.370  0.00  0.00    +0.083 A 
ATOM     12  C16 UNL     1     125.314 121.143  91.639  0.00  0.00    +0.161 A 
ATOM     13  C17 UNL     1     125.520 121.274  90.266  0.00  0.00    -0.125 A 
ENDBRANCH   1   8
BRANCH   1  14
ATOM     14  C3  UNL     1     122.742 117.454  92.229  0.00  0.00    +1.172 C 
ATOM     15  O1  UNL     1     122.142 116.849  93.108  0.00  0.00    -0.581 OA
BRANCH  14  17
ATOM     16  C1  UNL     1     125.096 116.797  92.774  0.00  0.00    +0.055 C 
ATOM     17  C2  UNL     1     124.017 116.841  91.696  0.00  0.00    -0.330 C 
ENDBRANCH  14  17
ENDBRANCH   1  14
BRANCH   1  18
ATOM     18  C5  UNL     1     121.230 118.607  90.510  0.00  0.00    -0.300 C 
BRANCH  18  19
ATOM     19  C18 UNL     1     120.511 117.224  90.438  0.00  0.00    +1.160 C 
ATOM     20  C19 UNL     1     119.048 117.344  90.918  0.00  0.00    -0.472 C 
BRANCH  19  21
ATOM     21  N1  UNL     1     120.631 116.620  89.080  0.00  0.00    -0.431 NA
ATOM     22  C20 UNL     1     121.188 117.565  88.098  0.00  0.00    +0.055 C 
ATOM     23  C21 UNL     1     121.371 115.344  89.031  0.00  0.00    +0.081 C 
ENDBRANCH  19  21
ENDBRANCH  18  19
ENDBRANCH   1  18
TORSDOF 7
ENDMDL
