MODEL 1
REMARK VINA RESULT:    -7.029      0.000      0.000
REMARK INTER + INTRA:         -10.762
REMARK INTER:                  -9.905
REMARK INTRA:                  -0.857
REMARK UNBOUND:                -0.857
REMARK  Name = Output/Trash/MethadoneSDF_ligand_intermediary.pdb
REMARK  11 active torsions:
REMARK  status: ('A' for Active; 'I' for Inactive)
REMARK    1  A    between atoms: C1_1  and  C2_2
REMARK    2  A    between atoms: C2_2  and  C3_3
REMARK    3  A    between atoms: C3_3  and  C4_4
REMARK    4  A    between atoms: C4_4  and  C5_5
REMARK    5  A    between atoms: C4_4  and  C6_7
REMARK    6  A    between atoms: C4_4  and  C7_8
REMARK    7  A    between atoms: C5_5  and  C18_19
REMARK    8  A    between atoms: C18_19  and  N1_20
REMARK    9  A    between atoms: C18_19  and  C19_21
REMARK   10  A    between atoms: N1_20  and  C20_22
REMARK   11  A    between atoms: N1_20  and  C21_23
REMARK                            x       y       z     vdW  Elec       q    Type
REMARK                         _______ _______ _______ _____ _____    ______ ____
ROOT
ATOM      1  C4  UNL     1     119.901 152.340 140.517  0.00  0.00    -0.536 C 
ENDROOT
BRANCH   1   2
ATOM      2  C6  UNL     1     120.977 153.073 139.673  0.00  0.00    +0.440 A 
ATOM      3  C8  UNL     1     120.651 153.686 138.439  0.00  0.00    -0.238 A 
ATOM      4  C9  UNL     1     122.284 153.289 140.180  0.00  0.00    -0.275 A 
ATOM      5  C10 UNL     1     121.606 154.403 137.714  0.00  0.00    +0.112 A 
ATOM      6  C11 UNL     1     123.233 154.007 139.449  0.00  0.00    +0.146 A 
ATOM      7  C12 UNL     1     122.897 154.557 138.213  0.00  0.00    -0.132 A 
ENDBRANCH   1   2
BRANCH   1   8
ATOM      8  C7  UNL     1     118.909 151.586 139.603  0.00  0.00    +0.426 A 
ATOM      9  C13 UNL     1     117.585 151.366 140.048  0.00  0.00    -0.136 A 
ATOM     10  C14 UNL     1     119.304 150.989 138.383  0.00  0.00    -0.334 A 
ATOM     11  C15 UNL     1     116.680 150.632 139.277  0.00  0.00    +0.083 A 
ATOM     12  C16 UNL     1     118.392 150.259 137.616  0.00  0.00    +0.161 A 
ATOM     13  C17 UNL     1     117.081 150.084 138.059  0.00  0.00    -0.125 A 
ENDBRANCH   1   8
BRANCH   1  14
ATOM     14  C3  UNL     1     120.679 151.389 141.444  0.00  0.00    +1.172 C 
ATOM     15  O1  UNL     1     121.452 150.562 140.977  0.00  0.00    -0.581 OA
BRANCH  14  17
ATOM     16  C1  UNL     1     119.397 150.454 143.381  0.00  0.00    +0.055 C 
ATOM     17  C2  UNL     1     120.499 151.416 142.945  0.00  0.00    -0.330 C 
ENDBRANCH  14  17
ENDBRANCH   1  14
BRANCH   1  18
ATOM     18  C5  UNL     1     119.066 153.379 141.358  0.00  0.00    -0.300 C 
BRANCH  18  19
ATOM     19  C18 UNL     1     119.652 154.823 141.440  0.00  0.00    +1.160 C 
ATOM     20  C19 UNL     1     118.745 155.824 140.692  0.00  0.00    -0.472 C 
BRANCH  19  21
ATOM     21  N1  UNL     1     119.920 155.220 142.851  0.00  0.00    -0.431 NA
ATOM     22  C20 UNL     1     118.985 154.587 143.796  0.00  0.00    +0.055 C 
ATOM     23  C21 UNL     1     121.311 155.015 143.302  0.00  0.00    +0.081 C 
ENDBRANCH  19  21
ENDBRANCH  18  19
ENDBRANCH   1  18
TORSDOF 7
ENDMDL
MODEL 2
REMARK VINA RESULT:    -6.801      1.487      4.852
REMARK INTER + INTRA:         -10.441
REMARK INTER:                 -10.214
REMARK INTRA:                  -0.227
REMARK UNBOUND:                -0.857
REMARK  Name = Output/Trash/MethadoneSDF_ligand_intermediary.pdb
REMARK  11 active torsions:
REMARK  status: ('A' for Active; 'I' for Inactive)
REMARK    1  A    between atoms: C1_1  and  C2_2
REMARK    2  A    between atoms: C2_2  and  C3_3
REMARK    3  A    between atoms: C3_3  and  C4_4
REMARK    4  A    between atoms: C4_4  and  C5_5
REMARK    5  A    between atoms: C4_4  and  C6_7
REMARK    6  A    between atoms: C4_4  and  C7_8
REMARK    7  A    between atoms: C5_5  and  C18_19
REMARK    8  A    between atoms: C18_19  and  N1_20
REMARK    9  A    between atoms: C18_19  and  C19_21
REMARK   10  A    between atoms: N1_20  and  C20_22
REMARK   11  A    between atoms: N1_20  and  C21_23
REMARK                            x       y       z     vdW  Elec       q    Type
REMARK                         _______ _______ _______ _____ _____    ______ ____
ROOT
ATOM      1  C4  UNL     1     119.731 152.380 140.527  0.00  0.00    -0.536 C 
ENDROOT
BRANCH   1   2
ATOM      2  C6  UNL     1     118.799 151.567 139.590  0.00  0.00    +0.440 A 
ATOM      3  C8  UNL     1     119.293 150.952 138.414  0.00  0.00    -0.238 A 
ATOM      4  C9  UNL     1     117.459 151.281 139.957  0.00  0.00    -0.275 A 
ATOM      5  C10 UNL     1     118.466 150.165 137.608  0.00  0.00    +0.112 A 
ATOM      6  C11 UNL     1     116.639 150.494 139.147  0.00  0.00    +0.146 A 
ATOM      7  C12 UNL     1     117.140 149.943 137.969  0.00  0.00    -0.132 A 
ENDBRANCH   1   2
BRANCH   1   8
ATOM      8  C7  UNL     1     120.856 153.064 139.719  0.00  0.00    +0.426 A 
ATOM      9  C13 UNL     1     122.176 153.061 140.226  0.00  0.00    -0.136 A 
ATOM     10  C14 UNL     1     120.601 153.813 138.546  0.00  0.00    -0.334 A 
ATOM     11  C15 UNL     1     123.206 153.727 139.556  0.00  0.00    +0.083 A 
ATOM     12  C16 UNL     1     121.637 154.473 137.879  0.00  0.00    +0.161 A 
ATOM     13  C17 UNL     1     122.938 154.426 138.380  0.00  0.00    -0.125 A 
ENDBRANCH   1   8
BRANCH   1  14
ATOM     14  C3  UNL     1     118.820 153.396 141.237  0.00  0.00    +1.172 C 
ATOM     15  O1  UNL     1     117.648 153.125 141.466  0.00  0.00    -0.581 OA
BRANCH  14  17
ATOM     16  C1  UNL     1     118.583 155.864 140.887  0.00  0.00    +0.055 C 
ATOM     17  C2  UNL     1     119.318 154.763 141.646  0.00  0.00    -0.330 C 
ENDBRANCH  14  17
ENDBRANCH   1  14
BRANCH   1  18
ATOM     18  C5  UNL     1     120.422 151.423 141.573  0.00  0.00    -0.300 C 
BRANCH  18  19
ATOM     19  C18 UNL     1     119.765 151.367 142.987  0.00  0.00    +1.160 C 
ATOM     20  C19 UNL     1     118.873 150.113 143.125  0.00  0.00    -0.472 C 
BRANCH  19  21
ATOM     21  N1  UNL     1     120.788 151.476 144.065  0.00  0.00    -0.431 NA
ATOM     22  C20 UNL     1     120.775 152.798 144.713  0.00  0.00    +0.055 C 
ATOM     23  C21 UNL     1     120.731 150.411 145.086  0.00  0.00    +0.081 C 
ENDBRANCH  19  21
ENDBRANCH  18  19
ENDBRANCH   1  18
TORSDOF 7
ENDMDL
MODEL 3
REMARK VINA RESULT:    -6.646      1.256      4.408
REMARK INTER + INTRA:         -10.223
REMARK INTER:                  -9.460
REMARK INTRA:                  -0.763
REMARK UNBOUND:                -0.857
REMARK  Name = Output/Trash/MethadoneSDF_ligand_intermediary.pdb
REMARK  11 active torsions:
REMARK  status: ('A' for Active; 'I' for Inactive)
REMARK    1  A    between atoms: C1_1  and  C2_2
REMARK    2  A    between atoms: C2_2  and  C3_3
REMARK    3  A    between atoms: C3_3  and  C4_4
REMARK    4  A    between atoms: C4_4  and  C5_5
REMARK    5  A    between atoms: C4_4  and  C6_7
REMARK    6  A    between atoms: C4_4  and  C7_8
REMARK    7  A    between atoms: C5_5  and  C18_19
REMARK    8  A    between atoms: C18_19  and  N1_20
REMARK    9  A    between atoms: C18_19  and  C19_21
REMARK   10  A    between atoms: N1_20  and  C20_22
REMARK   11  A    between atoms: N1_20  and  C21_23
REMARK                            x       y       z     vdW  Elec       q    Type
REMARK                         _______ _______ _______ _____ _____    ______ ____
ROOT
ATOM      1  C4  UNL     1     119.166 152.122 140.963  0.00  0.00    -0.536 C 
ENDROOT
BRANCH   1   2
ATOM      2  C6  UNL     1     118.480 151.245 139.881  0.00  0.00    +0.440 A 
ATOM      3  C8  UNL     1     119.193 150.231 139.197  0.00  0.00    -0.238 A 
ATOM      4  C9  UNL     1     117.083 151.325 139.651  0.00  0.00    -0.275 A 
ATOM      5  C10 UNL     1     118.556 149.399 138.272  0.00  0.00    +0.112 A 
ATOM      6  C11 UNL     1     116.454 150.491 138.725  0.00  0.00    +0.146 A 
ATOM      7  C12 UNL     1     117.191 149.534 138.030  0.00  0.00    -0.132 A 
ENDBRANCH   1   2
BRANCH   1   8
ATOM      8  C7  UNL     1     119.468 151.290 142.229  0.00  0.00    +0.426 A 
ATOM      9  C13 UNL     1     118.504 150.370 142.703  0.00  0.00    -0.136 A 
ATOM     10  C14 UNL     1     120.624 151.502 143.018  0.00  0.00    -0.334 A 
ATOM     11  C15 UNL     1     118.716 149.650 143.881  0.00  0.00    +0.083 A 
ATOM     12  C16 UNL     1     120.830 150.775 144.194  0.00  0.00    +0.161 A 
ATOM     13  C17 UNL     1     119.880 149.847 144.623  0.00  0.00    -0.125 A 
ENDBRANCH   1   8
BRANCH   1  14
ATOM     14  C3  UNL     1     120.445 152.668 140.303  0.00  0.00    +1.172 C 
ATOM     15  O1  UNL     1     121.531 152.533 140.851  0.00  0.00    -0.581 OA
BRANCH  14  17
ATOM     16  C1  UNL     1     121.524 152.943 138.060  0.00  0.00    +0.055 C 
ATOM     17  C2  UNL     1     120.407 153.412 138.988  0.00  0.00    -0.330 C 
ENDBRANCH  14  17
ENDBRANCH   1  14
BRANCH   1  18
ATOM     18  C5  UNL     1     118.212 153.301 141.393  0.00  0.00    -0.300 C 
BRANCH  18  19
ATOM     19  C18 UNL     1     118.914 154.623 141.832  0.00  0.00    +1.160 C 
ATOM     20  C19 UNL     1     118.417 155.813 140.983  0.00  0.00    -0.472 C 
BRANCH  19  21
ATOM     21  N1  UNL     1     118.771 154.853 143.298  0.00  0.00    -0.431 NA
ATOM     22  C20 UNL     1     117.827 153.910 143.920  0.00  0.00    +0.055 C 
ATOM     23  C21 UNL     1     120.040 154.871 144.052  0.00  0.00    +0.081 C 
ENDBRANCH  19  21
ENDBRANCH  18  19
ENDBRANCH   1  18
TORSDOF 7
ENDMDL
MODEL 4
REMARK VINA RESULT:    -6.601      1.744      4.452
REMARK INTER + INTRA:         -10.159
REMARK INTER:                  -9.372
REMARK INTRA:                  -0.788
REMARK UNBOUND:                -0.857
REMARK  Name = Output/Trash/MethadoneSDF_ligand_intermediary.pdb
REMARK  11 active torsions:
REMARK  status: ('A' for Active; 'I' for Inactive)
REMARK    1  A    between atoms: C1_1  and  C2_2
REMARK    2  A    between atoms: C2_2  and  C3_3
REMARK    3  A    between atoms: C3_3  and  C4_4
REMARK    4  A    between atoms: C4_4  and  C5_5
REMARK    5  A    between atoms: C4_4  and  C6_7
REMARK    6  A    between atoms: C4_4  and  C7_8
REMARK    7  A    between atoms: C5_5  and  C18_19
REMARK    8  A    between atoms: C18_19  and  N1_20
REMARK    9  A    between atoms: C18_19  and  C19_21
REMARK   10  A    between atoms: N1_20  and  C20_22
REMARK   11  A    between atoms: N1_20  and  C21_23
REMARK                            x       y       z     vdW  Elec       q    Type
REMARK                         _______ _______ _______ _____ _____    ______ ____
ROOT
ATOM      1  C4  UNL     1     119.291 152.053 141.161  0.00  0.00    -0.536 C 
ENDROOT
BRANCH   1   2
ATOM      2  C6  UNL     1     119.563 151.215 142.438  0.00  0.00    +0.440 A 
ATOM      3  C8  UNL     1     120.674 151.486 143.272  0.00  0.00    -0.238 A 
ATOM      4  C9  UNL     1     118.626 150.254 142.898  0.00  0.00    -0.275 A 
ATOM      5  C10 UNL     1     120.879 150.774 144.457  0.00  0.00    +0.112 A 
ATOM      6  C11 UNL     1     118.839 149.546 144.082  0.00  0.00    +0.146 A 
ATOM      7  C12 UNL     1     119.968 149.800 144.858  0.00  0.00    -0.132 A 
ENDBRANCH   1   2
BRANCH   1   8
ATOM      8  C7  UNL     1     118.545 151.211 140.103  0.00  0.00    +0.426 A 
ATOM      9  C13 UNL     1     119.286 150.399 139.212  0.00  0.00    -0.136 A 
ATOM     10  C14 UNL     1     117.149 151.313 139.897  0.00  0.00    -0.334 A 
ATOM     11  C15 UNL     1     118.651 149.675 138.200  0.00  0.00    +0.083 A 
ATOM     12  C16 UNL     1     116.520 150.583 138.884  0.00  0.00    +0.161 A 
ATOM     13  C17 UNL     1     117.268 149.762 138.041  0.00  0.00    -0.125 A 
ENDBRANCH   1   8
BRANCH   1  14
ATOM     14  C3  UNL     1     118.467 153.266 141.630  0.00  0.00    +1.172 C 
ATOM     15  O1  UNL     1     118.259 154.205 140.871  0.00  0.00    -0.581 OA
BRANCH  14  17
ATOM     16  C1  UNL     1     118.634 154.447 143.831  0.00  0.00    +0.055 C 
ATOM     17  C2  UNL     1     117.917 153.361 143.034  0.00  0.00    -0.330 C 
ENDBRANCH  14  17
ENDBRANCH   1  14
BRANCH   1  18
ATOM     18  C5  UNL     1     120.651 152.519 140.515  0.00  0.00    -0.300 C 
BRANCH  18  19
ATOM     19  C18 UNL     1     120.845 154.060 140.362  0.00  0.00    +1.160 C 
ATOM     20  C19 UNL     1     121.838 154.592 141.418  0.00  0.00    -0.472 C 
BRANCH  19  21
ATOM     21  N1  UNL     1     121.226 154.423 138.968  0.00  0.00    -0.431 NA
ATOM     22  C20 UNL     1     122.680 154.603 138.817  0.00  0.00    +0.055 C 
ATOM     23  C21 UNL     1     120.718 153.509 137.926  0.00  0.00    +0.081 C 
ENDBRANCH  19  21
ENDBRANCH  18  19
ENDBRANCH   1  18
TORSDOF 7
ENDMDL
MODEL 5
REMARK VINA RESULT:    -6.381      1.510      4.779
REMARK INTER + INTRA:          -9.849
REMARK INTER:                  -9.075
REMARK INTRA:                  -0.774
REMARK UNBOUND:                -0.857
REMARK  Name = Output/Trash/MethadoneSDF_ligand_intermediary.pdb
REMARK  11 active torsions:
REMARK  status: ('A' for Active; 'I' for Inactive)
REMARK    1  A    between atoms: C1_1  and  C2_2
REMARK    2  A    between atoms: C2_2  and  C3_3
REMARK    3  A    between atoms: C3_3  and  C4_4
REMARK    4  A    between atoms: C4_4  and  C5_5
REMARK    5  A    between atoms: C4_4  and  C6_7
REMARK    6  A    between atoms: C4_4  and  C7_8
REMARK    7  A    between atoms: C5_5  and  C18_19
REMARK    8  A    between atoms: C18_19  and  N1_20
REMARK    9  A    between atoms: C18_19  and  C19_21
REMARK   10  A    between atoms: N1_20  and  C20_22
REMARK   11  A    between atoms: N1_20  and  C21_23
REMARK                            x       y       z     vdW  Elec       q    Type
REMARK                         _______ _______ _______ _____ _____    ______ ____
ROOT
ATOM      1  C4  UNL     1     119.942 152.273 139.878  0.00  0.00    -0.536 C 
ENDROOT
BRANCH   1   2
ATOM      2  C6  UNL     1     118.916 151.353 139.165  0.00  0.00    +0.440 A 
ATOM      3  C8  UNL     1     117.638 151.106 139.723  0.00  0.00    -0.238 A 
ATOM      4  C9  UNL     1     119.161 150.855 137.860  0.00  0.00    -0.275 A 
ATOM      5  C10 UNL     1     116.692 150.332 139.047  0.00  0.00    +0.112 A 
ATOM      6  C11 UNL     1     118.211 150.082 137.191  0.00  0.00    +0.146 A 
ATOM      7  C12 UNL     1     116.980 149.813 137.787  0.00  0.00    -0.132 A 
ENDBRANCH   1   2
BRANCH   1   8
ATOM      8  C7  UNL     1     119.252 153.544 140.421  0.00  0.00    +0.426 A 
ATOM      9  C13 UNL     1     119.653 154.812 139.939  0.00  0.00    -0.136 A 
ATOM     10  C14 UNL     1     118.318 153.506 141.483  0.00  0.00    -0.334 A 
ATOM     11  C15 UNL     1     119.098 155.986 140.455  0.00  0.00    +0.083 A 
ATOM     12  C16 UNL     1     117.764 154.685 141.991  0.00  0.00    +0.161 A 
ATOM     13  C17 UNL     1     118.150 155.923 141.475  0.00  0.00    -0.125 A 
ENDBRANCH   1   8
BRANCH   1  14
ATOM     14  C3  UNL     1     120.557 151.417 141.000  0.00  0.00    +1.172 C 
ATOM     15  O1  UNL     1     120.857 150.248 140.793  0.00  0.00    -0.581 OA
BRANCH  14  17
ATOM     16  C1  UNL     1     120.197 151.034 143.448  0.00  0.00    +0.055 C 
ATOM     17  C2  UNL     1     120.780 151.966 142.390  0.00  0.00    -0.330 C 
ENDBRANCH  14  17
ENDBRANCH   1  14
BRANCH   1  18
ATOM     18  C5  UNL     1     121.053 152.741 138.861  0.00  0.00    -0.300 C 
BRANCH  18  19
ATOM     19  C18 UNL     1     122.500 152.854 139.433  0.00  0.00    +1.160 C 
ATOM     20  C19 UNL     1     123.406 151.750 138.845  0.00  0.00    -0.472 C 
BRANCH  19  21
ATOM     21  N1  UNL     1     123.053 154.225 139.242  0.00  0.00    -0.431 NA
ATOM     22  C20 UNL     1     124.451 154.329 139.696  0.00  0.00    +0.055 C 
ATOM     23  C21 UNL     1     122.923 154.763 137.874  0.00  0.00    +0.081 C 
ENDBRANCH  19  21
ENDBRANCH  18  19
ENDBRANCH   1  18
TORSDOF 7
ENDMDL
MODEL 6
REMARK VINA RESULT:    -6.243      2.047      4.800
REMARK INTER + INTRA:          -9.654
REMARK INTER:                  -9.037
REMARK INTRA:                  -0.617
REMARK UNBOUND:                -0.857
REMARK  Name = Output/Trash/MethadoneSDF_ligand_intermediary.pdb
REMARK  11 active torsions:
REMARK  status: ('A' for Active; 'I' for Inactive)
REMARK    1  A    between atoms: C1_1  and  C2_2
REMARK    2  A    between atoms: C2_2  and  C3_3
REMARK    3  A    between atoms: C3_3  and  C4_4
REMARK    4  A    between atoms: C4_4  and  C5_5
REMARK    5  A    between atoms: C4_4  and  C6_7
REMARK    6  A    between atoms: C4_4  and  C7_8
REMARK    7  A    between atoms: C5_5  and  C18_19
REMARK    8  A    between atoms: C18_19  and  N1_20
REMARK    9  A    between atoms: C18_19  and  C19_21
REMARK   10  A    between atoms: N1_20  and  C20_22
REMARK   11  A    between atoms: N1_20  and  C21_23
REMARK                            x       y       z     vdW  Elec       q    Type
REMARK                         _______ _______ _______ _____ _____    ______ ____
ROOT
ATOM      1  C4  UNL     1     119.836 153.610 141.152  0.00  0.00    -0.536 C 
ENDROOT
BRANCH   1   2
ATOM      2  C6  UNL     1     119.410 153.606 142.644  0.00  0.00    +0.440 A 
ATOM      3  C8  UNL     1     120.370 153.531 143.682  0.00  0.00    -0.238 A 
ATOM      4  C9  UNL     1     118.062 153.834 143.022  0.00  0.00    -0.275 A 
ATOM      5  C10 UNL     1     119.988 153.596 145.025  0.00  0.00    +0.112 A 
ATOM      6  C11 UNL     1     117.689 153.898 144.366  0.00  0.00    +0.146 A 
ATOM      7  C12 UNL     1     118.649 153.771 145.367  0.00  0.00    -0.132 A 
ENDBRANCH   1   2
BRANCH   1   8
ATOM      8  C7  UNL     1     119.166 152.445 140.390  0.00  0.00    +0.426 A 
ATOM      9  C13 UNL     1     119.787 151.925 139.230  0.00  0.00    -0.136 A 
ATOM     10  C14 UNL     1     117.883 151.955 140.728  0.00  0.00    -0.334 A 
ATOM     11  C15 UNL     1     119.178 150.917 138.478  0.00  0.00    +0.083 A 
ATOM     12  C16 UNL     1     117.281 150.944 139.972  0.00  0.00    +0.161 A 
ATOM     13  C17 UNL     1     117.929 150.423 138.853  0.00  0.00    -0.125 A 
ENDBRANCH   1   8
BRANCH   1  14
ATOM     14  C3  UNL     1     119.416 154.986 140.605  0.00  0.00    +1.172 C 
ATOM     15  O1  UNL     1     119.292 155.161 139.399  0.00  0.00    -0.581 OA
BRANCH  14  17
ATOM     16  C1  UNL     1     118.393 157.263 140.801  0.00  0.00    +0.055 C 
ATOM     17  C2  UNL     1     119.177 156.166 141.517  0.00  0.00    -0.330 C 
ENDBRANCH  14  17
ENDBRANCH   1  14
BRANCH   1  18
ATOM     18  C5  UNL     1     121.396 153.413 141.031  0.00  0.00    -0.300 C 
BRANCH  18  19
ATOM     19  C18 UNL     1     122.196 154.623 140.457  0.00  0.00    +1.160 C 
ATOM     20  C19 UNL     1     122.940 155.370 141.585  0.00  0.00    -0.472 C 
BRANCH  19  21
ATOM     21  N1  UNL     1     123.095 154.201 139.345  0.00  0.00    -0.431 NA
ATOM     22  C20 UNL     1     122.472 154.388 138.024  0.00  0.00    +0.055 C 
ATOM     23  C21 UNL     1     124.437 154.815 139.364  0.00  0.00    +0.081 C 
ENDBRANCH  19  21
ENDBRANCH  18  19
ENDBRANCH   1  18
TORSDOF 7
ENDMDL
MODEL 7
REMARK VINA RESULT:    -6.187      2.356      4.605
REMARK INTER + INTRA:          -9.576
REMARK INTER:                  -8.689
REMARK INTRA:                  -0.886
REMARK UNBOUND:                -0.857
REMARK  Name = Output/Trash/MethadoneSDF_ligand_intermediary.pdb
REMARK  11 active torsions:
REMARK  status: ('A' for Active; 'I' for Inactive)
REMARK    1  A    between atoms: C1_1  and  C2_2
REMARK    2  A    between atoms: C2_2  and  C3_3
REMARK    3  A    between atoms: C3_3  and  C4_4
REMARK    4  A    between atoms: C4_4  and  C5_5
REMARK    5  A    between atoms: C4_4  and  C6_7
REMARK    6  A    between atoms: C4_4  and  C7_8
REMARK    7  A    between atoms: C5_5  and  C18_19
REMARK    8  A    between atoms: C18_19  and  N1_20
REMARK    9  A    between atoms: C18_19  and  C19_21
REMARK   10  A    between atoms: N1_20  and  C20_22
REMARK   11  A    between atoms: N1_20  and  C21_23
REMARK                            x       y       z     vdW  Elec       q    Type
REMARK                         _______ _______ _______ _____ _____    ______ ____
ROOT
ATOM      1  C4  UNL     1     119.315 152.443 143.108  0.00  0.00    -0.536 C 
ENDROOT
BRANCH   1   2
ATOM      2  C6  UNL     1     120.075 151.540 144.114  0.00  0.00    +0.440 A 
ATOM      3  C8  UNL     1     121.089 152.064 144.952  0.00  0.00    -0.238 A 
ATOM      4  C9  UNL     1     119.677 150.198 144.340  0.00  0.00    -0.275 A 
ATOM      5  C10 UNL     1     121.725 151.263 145.904  0.00  0.00    +0.112 A 
ATOM      6  C11 UNL     1     120.318 149.404 145.294  0.00  0.00    +0.146 A 
ATOM      7  C12 UNL     1     121.347 149.933 146.069  0.00  0.00    -0.132 A 
ENDBRANCH   1   2
BRANCH   1   8
ATOM      8  C7  UNL     1     119.028 151.680 141.796  0.00  0.00    +0.426 A 
ATOM      9  C13 UNL     1     117.733 151.735 141.229  0.00  0.00    -0.136 A 
ATOM     10  C14 UNL     1     119.974 150.815 141.199  0.00  0.00    -0.334 A 
ATOM     11  C15 UNL     1     117.419 151.005 140.080  0.00  0.00    +0.083 A 
ATOM     12  C16 UNL     1     119.654 150.090 140.047  0.00  0.00    +0.161 A 
ATOM     13  C17 UNL     1     118.380 150.188 139.486  0.00  0.00    -0.125 A 
ENDBRANCH   1   8
BRANCH   1  14
ATOM     14  C3  UNL     1     118.025 152.873 143.830  0.00  0.00    +1.172 C 
ATOM     15  O1  UNL     1     117.639 154.033 143.771  0.00  0.00    -0.581 OA
BRANCH  14  17
ATOM     16  C1  UNL     1     117.014 152.420 146.075  0.00  0.00    +0.055 C 
ATOM     17  C2  UNL     1     117.213 151.901 144.654  0.00  0.00    -0.330 C 
ENDBRANCH  14  17
ENDBRANCH   1  14
BRANCH   1  18
ATOM     18  C5  UNL     1     120.190 153.701 142.736  0.00  0.00    -0.300 C 
BRANCH  18  19
ATOM     19  C18 UNL     1     120.115 154.171 141.250  0.00  0.00    +1.160 C 
ATOM     20  C19 UNL     1     119.352 155.510 141.139  0.00  0.00    -0.472 C 
BRANCH  19  21
ATOM     21  N1  UNL     1     121.468 154.219 140.627  0.00  0.00    -0.431 NA
ATOM     22  C20 UNL     1     121.413 154.593 139.203  0.00  0.00    +0.055 C 
ATOM     23  C21 UNL     1     122.450 155.064 141.335  0.00  0.00    +0.081 C 
ENDBRANCH  19  21
ENDBRANCH  18  19
ENDBRANCH   1  18
TORSDOF 7
ENDMDL
MODEL 8
REMARK VINA RESULT:    -5.999     18.530     20.772
REMARK INTER + INTRA:          -9.311
REMARK INTER:                  -8.332
REMARK INTRA:                  -0.979
REMARK UNBOUND:                -0.857
REMARK  Name = Output/Trash/MethadoneSDF_ligand_intermediary.pdb
REMARK  11 active torsions:
REMARK  status: ('A' for Active; 'I' for Inactive)
REMARK    1  A    between atoms: C1_1  and  C2_2
REMARK    2  A    between atoms: C2_2  and  C3_3
REMARK    3  A    between atoms: C3_3  and  C4_4
REMARK    4  A    between atoms: C4_4  and  C5_5
REMARK    5  A    between atoms: C4_4  and  C6_7
REMARK    6  A    between atoms: C4_4  and  C7_8
REMARK    7  A    between atoms: C5_5  and  C18_19
REMARK    8  A    between atoms: C18_19  and  N1_20
REMARK    9  A    between atoms: C18_19  and  C19_21
REMARK   10  A    between atoms: N1_20  and  C20_22
REMARK   11  A    between atoms: N1_20  and  C21_23
REMARK                            x       y       z     vdW  Elec       q    Type
REMARK                         _______ _______ _______ _____ _____    ______ ____
ROOT
ATOM      1  C4  UNL     1     131.220 143.827 126.063  0.00  0.00    -0.536 C 
ENDROOT
BRANCH   1   2
ATOM      2  C6  UNL     1     130.799 145.215 126.614  0.00  0.00    +0.440 A 
ATOM      3  C8  UNL     1     131.597 145.904 127.559  0.00  0.00    -0.238 A 
ATOM      4  C9  UNL     1     129.684 145.909 126.077  0.00  0.00    -0.275 A 
ATOM      5  C10 UNL     1     131.250 147.182 128.002  0.00  0.00    +0.112 A 
ATOM      6  C11 UNL     1     129.344 147.186 126.526  0.00  0.00    +0.146 A 
ATOM      7  C12 UNL     1     130.121 147.820 127.494  0.00  0.00    -0.132 A 
ENDBRANCH   1   2
BRANCH   1   8
ATOM      8  C7  UNL     1     131.949 143.006 127.149  0.00  0.00    +0.426 A 
ATOM      9  C13 UNL     1     133.030 142.171 126.781  0.00  0.00    -0.136 A 
ATOM     10  C14 UNL     1     131.500 142.951 128.490  0.00  0.00    -0.334 A 
ATOM     11  C15 UNL     1     133.670 141.364 127.725  0.00  0.00    +0.083 A 
ATOM     12  C16 UNL     1     132.148 142.144 129.430  0.00  0.00    +0.161 A 
ATOM     13  C17 UNL     1     133.234 141.356 129.049  0.00  0.00    -0.125 A 
ENDBRANCH   1   8
BRANCH   1  14
ATOM     14  C3  UNL     1     129.916 143.153 125.597  0.00  0.00    +1.172 C 
ATOM     15  O1  UNL     1     129.087 142.776 126.415  0.00  0.00    -0.581 OA
BRANCH  14  17
ATOM     16  C1  UNL     1     129.948 141.462 123.751  0.00  0.00    +0.055 C 
ATOM     17  C2  UNL     1     129.627 142.904 124.135  0.00  0.00    -0.330 C 
ENDBRANCH  14  17
ENDBRANCH   1  14
BRANCH   1  18
ATOM     18  C5  UNL     1     132.220 144.000 124.857  0.00  0.00    -0.300 C 
BRANCH  18  19
ATOM     19  C18 UNL     1     132.983 145.359 124.790  0.00  0.00    +1.160 C 
ATOM     20  C19 UNL     1     134.467 145.172 125.174  0.00  0.00    -0.472 C 
BRANCH  19  21
ATOM     21  N1  UNL     1     132.802 146.018 123.464  0.00  0.00    -0.431 NA
ATOM     22  C20 UNL     1     132.294 145.086 122.444  0.00  0.00    +0.055 C 
ATOM     23  C21 UNL     1     131.980 147.243 123.486  0.00  0.00    +0.081 C 
ENDBRANCH  19  21
ENDBRANCH  18  19
ENDBRANCH   1  18
TORSDOF 7
ENDMDL
MODEL 9
REMARK VINA RESULT:    -5.879     18.359     20.743
REMARK INTER + INTRA:          -9.142
REMARK INTER:                  -8.197
REMARK INTRA:                  -0.946
REMARK UNBOUND:                -0.857
REMARK  Name = Output/Trash/MethadoneSDF_ligand_intermediary.pdb
REMARK  11 active torsions:
REMARK  status: ('A' for Active; 'I' for Inactive)
REMARK    1  A    between atoms: C1_1  and  C2_2
REMARK    2  A    between atoms: C2_2  and  C3_3
REMARK    3  A    between atoms: C3_3  and  C4_4
REMARK    4  A    between atoms: C4_4  and  C5_5
REMARK    5  A    between atoms: C4_4  and  C6_7
REMARK    6  A    between atoms: C4_4  and  C7_8
REMARK    7  A    between atoms: C5_5  and  C18_19
REMARK    8  A    between atoms: C18_19  and  N1_20
REMARK    9  A    between atoms: C18_19  and  C19_21
REMARK   10  A    between atoms: N1_20  and  C20_22
REMARK   11  A    between atoms: N1_20  and  C21_23
REMARK                            x       y       z     vdW  Elec       q    Type
REMARK                         _______ _______ _______ _____ _____    ______ ____
ROOT
ATOM      1  C4  UNL     1     131.704 145.244 126.123  0.00  0.00    -0.536 C 
ENDROOT
BRANCH   1   2
ATOM      2  C6  UNL     1     132.097 144.164 127.165  0.00  0.00    +0.440 A 
ATOM      3  C8  UNL     1     131.182 143.732 128.156  0.00  0.00    -0.238 A 
ATOM      4  C9  UNL     1     133.325 143.461 127.065  0.00  0.00    -0.275 A 
ATOM      5  C10 UNL     1     131.515 142.712 129.051  0.00  0.00    +0.112 A 
ATOM      6  C11 UNL     1     133.650 142.443 127.963  0.00  0.00    +0.146 A 
ATOM      7  C12 UNL     1     132.749 142.073 128.960  0.00  0.00    -0.132 A 
ENDBRANCH   1   2
BRANCH   1   8
ATOM      8  C7  UNL     1     130.798 146.319 126.764  0.00  0.00    +0.426 A 
ATOM      9  C13 UNL     1     129.468 146.468 126.307  0.00  0.00    -0.136 A 
ATOM     10  C14 UNL     1     131.281 147.255 127.708  0.00  0.00    -0.334 A 
ATOM     11  C15 UNL     1     128.640 147.472 126.817  0.00  0.00    +0.083 A 
ATOM     12  C16 UNL     1     130.446 148.255 128.216  0.00  0.00    +0.161 A 
ATOM     13  C17 UNL     1     129.127 148.360 127.775  0.00  0.00    -0.125 A 
ENDBRANCH   1   8
BRANCH   1  14
ATOM     14  C3  UNL     1     133.034 145.829 125.613  0.00  0.00    +1.172 C 
ATOM     15  O1  UNL     1     133.923 146.126 126.400  0.00  0.00    -0.581 OA
BRANCH  14  17
ATOM     16  C1  UNL     1     132.845 147.500 123.757  0.00  0.00    +0.055 C 
ATOM     17  C2  UNL     1     133.278 146.089 124.144  0.00  0.00    -0.330 C 
ENDBRANCH  14  17
ENDBRANCH   1  14
BRANCH   1  18
ATOM     18  C5  UNL     1     130.892 144.591 124.940  0.00  0.00    -0.300 C 
BRANCH  18  19
ATOM     19  C18 UNL     1     131.037 143.046 124.781  0.00  0.00    +1.160 C 
ATOM     20  C19 UNL     1     129.665 142.395 124.499  0.00  0.00    -0.472 C 
BRANCH  19  21
ATOM     21  N1  UNL     1     132.067 142.699 123.761  0.00  0.00    -0.431 NA
ATOM     22  C20 UNL     1     132.706 141.401 124.034  0.00  0.00    +0.055 C 
ATOM     23  C21 UNL     1     131.598 142.749 122.362  0.00  0.00    +0.081 C 
ENDBRANCH  19  21
ENDBRANCH  18  19
ENDBRANCH   1  18
TORSDOF 7
ENDMDL
